Extracting input_simdev.tar for blackscholes...
Running blackscholes with simdev configuration...
Global frequency set at 1000000000000 ticks per second
warn: rounding error > tolerance
    29.103830 rounded to 29
warn: rounding error > tolerance
    29.103830 rounded to 29
warn: No dot file generated. Please install pydot to generate the dot file and pdf.
warn: rounding error > tolerance
    29.103830 rounded to 29
src/base/statistics.hh:279: warn: One of the stats is a legacy stat. Legacy stat is a stat that does not belong to any statistics::Group. Legacy stat is deprecated.
src/base/stats/storage.hh:278: warn: Bucket size (4) does not divide range [1:32] into equal-sized buckets. Rounding up.
src/base/stats/storage.hh:278: warn: Bucket size (4) does not divide range [1:8] into equal-sized buckets. Rounding up.
src/base/remote_gdb.cc:418: warn: Sockets disabled, not accepting gdb connections
gem5 Simulator System.  https://www.gem5.org
gem5 is copyrighted software; use the --copyright option for details.

gem5 version 25.1.0.0
gem5 compiled Apr 19 2026 20:34:35
gem5 started Apr 20 2026 02:39:12
gem5 executing on shafin-HP-Laptop-14s-fq1786, pid 708664
command line: ./gem5/build/ALL/gem5.opt se_binary_workload.py --isa X86 --binary-path /home/shafin/repos/parsec-gem5/pkgs/apps/blackscholes/inst/amd64-linux.gcc-hooks/bin/blackscholes --binary-args '1 in_16.txt prices.txt' --num-cores=1

info: Standard input is not a terminal, disabling listeners.
Parameters:
  binary-path: /home/shafin/repos/parsec-gem5/pkgs/apps/blackscholes/inst/amd64-linux.gcc-hooks/bin/blackscholes
  binary-id: None
  binary_args: 1 in_16.txt prices.txt
  isa: X86
  rob-size: 512
  lq-size: 32
  sq-size: 32
  num-cores: 1
Running the simulation
Using O3 cpu
src/sim/syscall_emul.cc:86: warn: ignoring syscall set_robust_list(...)
src/sim/syscall_emul.cc:86: warn: ignoring syscall rseq(...)
src/sim/mem_state.cc:443: info: Increasing stack size by one page.
src/sim/syscall_emul.hh:1127: warn: readlink() called on '/proc/self/exe' may yield unexpected results in various settings.
      Returning '/home/shafin/repos/parsec-gem5/pkgs/apps/blackscholes/inst/amd64-linux.gcc-hooks/bin/blackscholes'
src/sim/syscall_emul.cc:86: warn: ignoring syscall mprotect(...)
PARSEC Benchmark Suite Version 3.0-beta-20150206
[HOOKS] PARSEC Hooks Version 1.2
Num of Options: 16
Num of Runs: 100
Size of data: 640
[HOOKS] Entering ROI
warn: No behavior was set by the user for work begin. Default behavior is resetting the stats and continuing.
src/sim/syscall_emul.cc:97: warn: ignoring syscall rt_sigaction(...)
      (further warnings will be suppressed)
src/sim/syscall_emul.cc:97: warn: ignoring syscall rt_sigprocmask(...)
      (further warnings will be suppressed)
src/sim/syscall_emul.cc:86: warn: ignoring syscall madvise(...)
warn: No behavior was set by the user for work end. Default behavior is dumping the stats and continuing.
[HOOKS] Leaving ROI
[HOOKS] Total time spent in ROI: 0.000032s
[HOOKS] Terminating
All simulation events were successful.
Done with the simulation after 2.70 seconds of wall clock time!
Extracting input_simdev.tar for swaptions...
Running swaptions with simdev configuration...
Global frequency set at 1000000000000 ticks per second
warn: rounding error > tolerance
    29.103830 rounded to 29
warn: rounding error > tolerance
    29.103830 rounded to 29
warn: No dot file generated. Please install pydot to generate the dot file and pdf.
warn: rounding error > tolerance
    29.103830 rounded to 29
src/base/statistics.hh:279: warn: One of the stats is a legacy stat. Legacy stat is a stat that does not belong to any statistics::Group. Legacy stat is deprecated.
src/base/stats/storage.hh:278: warn: Bucket size (4) does not divide range [1:32] into equal-sized buckets. Rounding up.
src/base/stats/storage.hh:278: warn: Bucket size (4) does not divide range [1:8] into equal-sized buckets. Rounding up.
src/base/remote_gdb.cc:418: warn: Sockets disabled, not accepting gdb connections
gem5 Simulator System.  https://www.gem5.org
gem5 is copyrighted software; use the --copyright option for details.

gem5 version 25.1.0.0
gem5 compiled Apr 19 2026 20:34:35
gem5 started Apr 20 2026 02:39:15
gem5 executing on shafin-HP-Laptop-14s-fq1786, pid 708716
command line: ./gem5/build/ALL/gem5.opt se_binary_workload.py --isa X86 --binary-path /home/shafin/repos/parsec-gem5/pkgs/apps/swaptions/inst/amd64-linux.gcc-hooks/bin/swaptions --binary-args '-ns 3 -sm 50 -nt 1' --num-cores=1

info: Standard input is not a terminal, disabling listeners.
Parameters:
  binary-path: /home/shafin/repos/parsec-gem5/pkgs/apps/swaptions/inst/amd64-linux.gcc-hooks/bin/swaptions
  binary-id: None
  binary_args: -ns 3 -sm 50 -nt 1
  isa: X86
  rob-size: 512
  lq-size: 32
  sq-size: 32
  num-cores: 1
Running the simulation
Using O3 cpu
src/sim/syscall_emul.cc:86: warn: ignoring syscall set_robust_list(...)
src/sim/syscall_emul.cc:86: warn: ignoring syscall rseq(...)
src/sim/mem_state.cc:443: info: Increasing stack size by one page.
src/sim/syscall_emul.hh:1127: warn: readlink() called on '/proc/self/exe' may yield unexpected results in various settings.
      Returning '/home/shafin/repos/parsec-gem5/pkgs/apps/swaptions/inst/amd64-linux.gcc-hooks/bin/swaptions'
src/sim/syscall_emul.cc:86: warn: ignoring syscall mprotect(...)
PARSEC Benchmark Suite Version 3.0-beta-20150206
[HOOKS] PARSEC Hooks Version 1.2
Number of Simulations: 50,  Number of threads: 1 Number of swaptions: 3
[HOOKS] Entering ROI
warn: No behavior was set by the user for work begin. Default behavior is resetting the stats and continuing.
src/sim/syscall_emul.cc:97: warn: ignoring syscall rt_sigaction(...)
      (further warnings will be suppressed)
src/sim/syscall_emul.cc:97: warn: ignoring syscall rt_sigprocmask(...)
      (further warnings will be suppressed)
src/sim/syscall_emul.cc:86: warn: ignoring syscall madvise(...)
warn: No behavior was set by the user for work end. Default behavior is dumping the stats and continuing.
[HOOKS] Leaving ROI
Swaption 0: [SwaptionPrice: 0.0000000000 StdError: 0.0000000000] 
Swaption 1: [SwaptionPrice: 0.0000000000 StdError: 0.0000000000] 
Swaption 2: [SwaptionPrice: 0.0000000000 StdError: 0.0000000000] 
[HOOKS] Total time spent in ROI: 0.000029s
[HOOKS] Terminating
All simulation events were successful.
Done with the simulation after 4.39 seconds of wall clock time!
Extracting input_simdev.tar for canneal...
Running canneal with simdev configuration...
Global frequency set at 1000000000000 ticks per second
warn: rounding error > tolerance
    29.103830 rounded to 29
warn: rounding error > tolerance
    29.103830 rounded to 29
warn: No dot file generated. Please install pydot to generate the dot file and pdf.
warn: rounding error > tolerance
    29.103830 rounded to 29
src/base/statistics.hh:279: warn: One of the stats is a legacy stat. Legacy stat is a stat that does not belong to any statistics::Group. Legacy stat is deprecated.
src/base/stats/storage.hh:278: warn: Bucket size (4) does not divide range [1:32] into equal-sized buckets. Rounding up.
src/base/stats/storage.hh:278: warn: Bucket size (4) does not divide range [1:8] into equal-sized buckets. Rounding up.
src/base/remote_gdb.cc:418: warn: Sockets disabled, not accepting gdb connections
gem5 Simulator System.  https://www.gem5.org
gem5 is copyrighted software; use the --copyright option for details.

gem5 version 25.1.0.0
gem5 compiled Apr 19 2026 20:34:35
gem5 started Apr 20 2026 02:39:20
gem5 executing on shafin-HP-Laptop-14s-fq1786, pid 708795
command line: ./gem5/build/ALL/gem5.opt se_binary_workload.py --isa X86 --binary-path /home/shafin/repos/parsec-gem5/pkgs/kernels/canneal/inst/amd64-linux.gcc-hooks/bin/canneal --binary-args '1 100 300 100.nets 2' --num-cores=1

info: Standard input is not a terminal, disabling listeners.
Parameters:
  binary-path: /home/shafin/repos/parsec-gem5/pkgs/kernels/canneal/inst/amd64-linux.gcc-hooks/bin/canneal
  binary-id: None
  binary_args: 1 100 300 100.nets 2
  isa: X86
  rob-size: 512
  lq-size: 32
  sq-size: 32
  num-cores: 1
Running the simulation
Using O3 cpu
src/sim/syscall_emul.cc:86: warn: ignoring syscall set_robust_list(...)
src/sim/syscall_emul.cc:86: warn: ignoring syscall rseq(...)
src/sim/mem_state.cc:443: info: Increasing stack size by one page.
src/sim/syscall_emul.hh:1127: warn: readlink() called on '/proc/self/exe' may yield unexpected results in various settings.
      Returning '/home/shafin/repos/parsec-gem5/pkgs/kernels/canneal/inst/amd64-linux.gcc-hooks/bin/canneal'
src/sim/syscall_emul.cc:86: warn: ignoring syscall mprotect(...)
PARSEC Benchmark Suite Version 3.0-beta-20150206
[HOOKS] PARSEC Hooks Version 1.2
Threadcount: 1
100 swaps per temperature step
start temperature: 300
netlist filename: 100.nets
number of temperature steps: 2
locs created
locs assigned
netlist created. 100 elements.
[HOOKS] Entering ROI
warn: No behavior was set by the user for work begin. Default behavior is resetting the stats and continuing.
warn: No behavior was set by the user for work end. Default behavior is dumping the stats and continuing.
[HOOKS] Leaving ROI
Final routing is: 4365
[HOOKS] Total time spent in ROI: 0.000364s
[HOOKS] Terminating
All simulation events were successful.
Done with the simulation after 23.74 seconds of wall clock time!
Extracting input_test.tar for fluidanimate...
Running fluidanimate with test configuration...
Global frequency set at 1000000000000 ticks per second
warn: rounding error > tolerance
    29.103830 rounded to 29
warn: rounding error > tolerance
    29.103830 rounded to 29
warn: No dot file generated. Please install pydot to generate the dot file and pdf.
warn: rounding error > tolerance
    29.103830 rounded to 29
src/base/statistics.hh:279: warn: One of the stats is a legacy stat. Legacy stat is a stat that does not belong to any statistics::Group. Legacy stat is deprecated.
src/base/stats/storage.hh:278: warn: Bucket size (4) does not divide range [1:32] into equal-sized buckets. Rounding up.
src/base/stats/storage.hh:278: warn: Bucket size (4) does not divide range [1:8] into equal-sized buckets. Rounding up.
src/base/remote_gdb.cc:418: warn: Sockets disabled, not accepting gdb connections
gem5 Simulator System.  https://www.gem5.org
gem5 is copyrighted software; use the --copyright option for details.

gem5 version 25.1.0.0
gem5 compiled Apr 19 2026 20:34:35
gem5 started Apr 20 2026 02:39:45
gem5 executing on shafin-HP-Laptop-14s-fq1786, pid 709185
command line: ./gem5/build/ALL/gem5.opt se_binary_workload.py --isa X86 --binary-path /home/shafin/repos/parsec-gem5/pkgs/apps/fluidanimate/inst/amd64-linux.gcc-hooks/bin/fluidanimate --binary-args '1 1 in_5K.fluid out.fluid' --num-cores=1

info: Standard input is not a terminal, disabling listeners.
Parameters:
  binary-path: /home/shafin/repos/parsec-gem5/pkgs/apps/fluidanimate/inst/amd64-linux.gcc-hooks/bin/fluidanimate
  binary-id: None
  binary_args: 1 1 in_5K.fluid out.fluid
  isa: X86
  rob-size: 512
  lq-size: 32
  sq-size: 32
  num-cores: 1
Running the simulation
Using O3 cpu
src/sim/syscall_emul.cc:86: warn: ignoring syscall set_robust_list(...)
src/sim/syscall_emul.cc:86: warn: ignoring syscall rseq(...)
src/sim/mem_state.cc:443: info: Increasing stack size by one page.
src/sim/syscall_emul.hh:1127: warn: readlink() called on '/proc/self/exe' may yield unexpected results in various settings.
      Returning '/home/shafin/repos/parsec-gem5/pkgs/apps/fluidanimate/inst/amd64-linux.gcc-hooks/bin/fluidanimate'
src/sim/syscall_emul.cc:86: warn: ignoring syscall mprotect(...)
PARSEC Benchmark Suite Version 3.0-beta-20150206
[HOOKS] PARSEC Hooks Version 1.2
Loading file "in_5K.fluid"...
Number of cells: 4725
Grids steps over x, y, z: 0.00866667 0.00857143 0.00866667
Number of particles: 4800
[HOOKS] Entering ROI
warn: No behavior was set by the user for work begin. Default behavior is resetting the stats and continuing.
src/sim/syscall_emul.cc:97: warn: ignoring syscall rt_sigaction(...)
      (further warnings will be suppressed)
src/sim/syscall_emul.cc:97: warn: ignoring syscall rt_sigprocmask(...)
      (further warnings will be suppressed)
src/sim/syscall_emul.cc:86: warn: ignoring syscall madvise(...)
warn: No behavior was set by the user for work end. Default behavior is dumping the stats and continuing.
[HOOKS] Leaving ROI
Saving file "out.fluid"...
[HOOKS] Total time spent in ROI: 0.000035s
[HOOKS] Terminating
All simulation events were successful.
Done with the simulation after 227.22 seconds of wall clock time!
Extracting input_test.tar for ferret...
Running ferret with test configuration...
Global frequency set at 1000000000000 ticks per second
warn: rounding error > tolerance
    29.103830 rounded to 29
warn: rounding error > tolerance
    29.103830 rounded to 29
warn: No dot file generated. Please install pydot to generate the dot file and pdf.
warn: rounding error > tolerance
    29.103830 rounded to 29
src/base/statistics.hh:279: warn: One of the stats is a legacy stat. Legacy stat is a stat that does not belong to any statistics::Group. Legacy stat is deprecated.
src/base/stats/storage.hh:278: warn: Bucket size (4) does not divide range [1:32] into equal-sized buckets. Rounding up.
src/base/stats/storage.hh:278: warn: Bucket size (4) does not divide range [1:8] into equal-sized buckets. Rounding up.
src/base/remote_gdb.cc:418: warn: Sockets disabled, not accepting gdb connections
gem5 Simulator System.  https://www.gem5.org
gem5 is copyrighted software; use the --copyright option for details.

gem5 version 25.1.0.0
gem5 compiled Apr 19 2026 20:34:35
gem5 started Apr 20 2026 02:43:33
gem5 executing on shafin-HP-Laptop-14s-fq1786, pid 711735
command line: ./gem5/build/ALL/gem5.opt se_binary_workload.py --isa X86 --binary-path /home/shafin/repos/parsec-gem5/pkgs/apps/ferret/inst/amd64-linux.gcc-hooks/bin/ferret --binary-args 'corel lsh queries 5 5 1 output.txt' --num-cores=1

info: Standard input is not a terminal, disabling listeners.
Parameters:
  binary-path: /home/shafin/repos/parsec-gem5/pkgs/apps/ferret/inst/amd64-linux.gcc-hooks/bin/ferret
  binary-id: None
  binary_args: corel lsh queries 5 5 1 output.txt
  isa: X86
  rob-size: 512
  lq-size: 32
  sq-size: 32
  num-cores: 1
Running the simulation
Using O3 cpu
src/sim/syscall_emul.cc:86: warn: ignoring syscall set_robust_list(...)
src/sim/syscall_emul.cc:86: warn: ignoring syscall rseq(...)
src/sim/mem_state.cc:443: info: Increasing stack size by one page.
src/sim/syscall_emul.hh:1127: warn: readlink() called on '/proc/self/exe' may yield unexpected results in various settings.
      Returning '/home/shafin/repos/parsec-gem5/pkgs/apps/ferret/inst/amd64-linux.gcc-hooks/bin/ferret'
src/sim/syscall_emul.cc:86: warn: ignoring syscall mprotect(...)
PARSEC Benchmark Suite Version 3.0-beta-20150206
[HOOKS] PARSEC Hooks Version 1.2
src/sim/mem_state.cc:443: info: Increasing stack size by one page.
src/sim/syscall_emul.hh:1504: warn: newfstatat: Flag bits 0x100 not supported.
src/sim/mem_state.cc:443: info: Increasing stack size by one page.
src/sim/mem_state.cc:443: info: Increasing stack size by one page.
[HOOKS] Entering ROI
warn: No behavior was set by the user for work begin. Default behavior is resetting the stats and continuing.
src/sim/mem_state.cc:443: info: Increasing stack size by one page.
src/sim/mem_state.cc:443: info: Increasing stack size by one page.
src/sim/mem_state.cc:443: info: Increasing stack size by one page.
src/sim/mem_state.cc:443: info: Increasing stack size by one page.
src/sim/mem_state.cc:443: info: Increasing stack size by one page.
src/sim/mem_state.cc:443: info: Increasing stack size by one page.
src/sim/mem_state.cc:443: info: Increasing stack size by one page.
src/sim/mem_state.cc:443: info: Increasing stack size by one page.
src/sim/mem_state.cc:443: info: Increasing stack size by one page.
src/sim/mem_state.cc:443: info: Increasing stack size by one page.
src/sim/mem_state.cc:443: info: Increasing stack size by one page.
src/sim/mem_state.cc:443: info: Increasing stack size by one page.
src/sim/mem_state.cc:443: info: Increasing stack size by one page.
src/sim/mem_state.cc:443: info: Increasing stack size by one page.
src/sim/mem_state.cc:443: info: Increasing stack size by one page.
src/sim/mem_state.cc:443: info: Increasing stack size by one page.
src/sim/mem_state.cc:443: info: Increasing stack size by one page.
src/sim/mem_state.cc:443: info: Increasing stack size by one page.
src/sim/mem_state.cc:443: info: Increasing stack size by one page.
src/sim/mem_state.cc:443: info: Increasing stack size by one page.
src/sim/mem_state.cc:443: info: Increasing stack size by one page.
src/sim/mem_state.cc:443: info: Increasing stack size by one page.
src/sim/mem_state.cc:443: info: Increasing stack size by one page.
src/sim/mem_state.cc:443: info: Increasing stack size by one page.
src/sim/mem_state.cc:443: info: Increasing stack size by one page.
src/sim/mem_state.cc:443: info: Increasing stack size by one page.
src/sim/mem_state.cc:443: info: Increasing stack size by one page.
src/sim/mem_state.cc:443: info: Increasing stack size by one page.
src/sim/mem_state.cc:443: info: Increasing stack size by one page.
src/sim/mem_state.cc:443: info: Increasing stack size by one page.
src/sim/mem_state.cc:443: info: Increasing stack size by one page.
src/sim/mem_state.cc:443: info: Increasing stack size by one page.
src/sim/mem_state.cc:443: info: Increasing stack size by one page.
src/sim/mem_state.cc:443: info: Increasing stack size by one page.
src/sim/mem_state.cc:443: info: Increasing stack size by one page.
src/sim/mem_state.cc:443: info: Increasing stack size by one page.
src/sim/mem_state.cc:443: info: Increasing stack size by one page.
src/sim/mem_state.cc:443: info: Increasing stack size by one page.
src/sim/mem_state.cc:443: info: Increasing stack size by one page.
src/sim/mem_state.cc:443: info: Increasing stack size by one page.
src/sim/mem_state.cc:443: info: Increasing stack size by one page.
src/sim/mem_state.cc:443: info: Increasing stack size by one page.
src/sim/mem_state.cc:443: info: Increasing stack size by one page.
src/sim/mem_state.cc:443: info: Increasing stack size by one page.
src/sim/mem_state.cc:443: info: Increasing stack size by one page.
src/sim/mem_state.cc:443: info: Increasing stack size by one page.
src/sim/mem_state.cc:443: info: Increasing stack size by one page.
src/sim/mem_state.cc:443: info: Increasing stack size by one page.
src/sim/mem_state.cc:443: info: Increasing stack size by one page.
src/sim/mem_state.cc:443: info: Increasing stack size by one page.
src/sim/mem_state.cc:443: info: Increasing stack size by one page.
src/sim/mem_state.cc:443: info: Increasing stack size by one page.
src/sim/mem_state.cc:443: info: Increasing stack size by one page.
src/sim/mem_state.cc:443: info: Increasing stack size by one page.
src/sim/mem_state.cc:443: info: Increasing stack size by one page.
src/sim/mem_state.cc:443: info: Increasing stack size by one page.
src/sim/mem_state.cc:443: info: Increasing stack size by one page.
src/sim/mem_state.cc:443: info: Increasing stack size by one page.
src/sim/mem_state.cc:443: info: Increasing stack size by one page.
src/sim/mem_state.cc:443: info: Increasing stack size by one page.
src/sim/mem_state.cc:443: info: Increasing stack size by one page.
src/sim/mem_state.cc:443: info: Increasing stack size by one page.
src/sim/mem_state.cc:443: info: Increasing stack size by one page.
src/sim/mem_state.cc:443: info: Increasing stack size by one page.
src/sim/mem_state.cc:443: info: Increasing stack size by one page.
src/sim/mem_state.cc:443: info: Increasing stack size by one page.
src/sim/mem_state.cc:443: info: Increasing stack size by one page.
src/sim/mem_state.cc:443: info: Increasing stack size by one page.
src/sim/mem_state.cc:443: info: Increasing stack size by one page.
src/sim/mem_state.cc:443: info: Increasing stack size by one page.
src/sim/mem_state.cc:443: info: Increasing stack size by one page.
src/sim/mem_state.cc:443: info: Increasing stack size by one page.
src/sim/mem_state.cc:443: info: Increasing stack size by one page.
src/sim/mem_state.cc:443: info: Increasing stack size by one page.
src/sim/mem_state.cc:443: info: Increasing stack size by one page.
src/sim/mem_state.cc:443: info: Increasing stack size by one page.
src/sim/mem_state.cc:443: info: Increasing stack size by one page.
src/sim/mem_state.cc:443: info: Increasing stack size by one page.
src/sim/mem_state.cc:443: info: Increasing stack size by one page.
src/sim/mem_state.cc:443: info: Increasing stack size by one page.
src/sim/mem_state.cc:443: info: Increasing stack size by one page.
src/sim/mem_state.cc:443: info: Increasing stack size by one page.
src/sim/mem_state.cc:443: info: Increasing stack size by one page.
src/sim/mem_state.cc:443: info: Increasing stack size by one page.
src/sim/mem_state.cc:443: info: Increasing stack size by one page.
src/sim/mem_state.cc:443: info: Increasing stack size by one page.
src/sim/mem_state.cc:443: info: Increasing stack size by one page.
src/sim/mem_state.cc:443: info: Increasing stack size by one page.
src/sim/mem_state.cc:443: info: Increasing stack size by one page.
src/sim/mem_state.cc:443: info: Increasing stack size by one page.
src/sim/mem_state.cc:443: info: Increasing stack size by one page.
src/sim/mem_state.cc:443: info: Increasing stack size by one page.
src/sim/mem_state.cc:443: info: Increasing stack size by one page.
src/sim/mem_state.cc:443: info: Increasing stack size by one page.
src/sim/mem_state.cc:443: info: Increasing stack size by one page.
src/sim/mem_state.cc:443: info: Increasing stack size by one page.
src/sim/mem_state.cc:443: info: Increasing stack size by one page.
src/sim/mem_state.cc:443: info: Increasing stack size by one page.
src/sim/mem_state.cc:443: info: Increasing stack size by one page.
src/sim/mem_state.cc:443: info: Increasing stack size by one page.
src/sim/mem_state.cc:443: info: Increasing stack size by one page.
src/sim/mem_state.cc:443: info: Increasing stack size by one page.
src/sim/mem_state.cc:443: info: Increasing stack size by one page.
src/sim/mem_state.cc:443: info: Increasing stack size by one page.
src/sim/mem_state.cc:443: info: Increasing stack size by one page.
src/sim/mem_state.cc:443: info: Increasing stack size by one page.
src/sim/mem_state.cc:443: info: Increasing stack size by one page.
src/sim/mem_state.cc:443: info: Increasing stack size by one page.
src/sim/mem_state.cc:443: info: Increasing stack size by one page.
src/sim/mem_state.cc:443: info: Increasing stack size by one page.
src/sim/mem_state.cc:443: info: Increasing stack size by one page.
src/sim/mem_state.cc:443: info: Increasing stack size by one page.
src/sim/mem_state.cc:443: info: Increasing stack size by one page.
src/sim/mem_state.cc:443: info: Increasing stack size by one page.
src/sim/mem_state.cc:443: info: Increasing stack size by one page.
src/sim/mem_state.cc:443: info: Increasing stack size by one page.
src/sim/mem_state.cc:443: info: Increasing stack size by one page.
src/sim/mem_state.cc:443: info: Increasing stack size by one page.
src/sim/mem_state.cc:443: info: Increasing stack size by one page.
src/sim/mem_state.cc:443: info: Increasing stack size by one page.
src/sim/mem_state.cc:443: info: Increasing stack size by one page.
src/sim/mem_state.cc:443: info: Increasing stack size by one page.
src/sim/mem_state.cc:443: info: Increasing stack size by one page.
src/sim/mem_state.cc:443: info: Increasing stack size by one page.
src/sim/mem_state.cc:443: info: Increasing stack size by one page.
src/sim/mem_state.cc:443: info: Increasing stack size by one page.
src/sim/mem_state.cc:443: info: Increasing stack size by one page.
src/sim/mem_state.cc:443: info: Increasing stack size by one page.
src/sim/mem_state.cc:443: info: Increasing stack size by one page.
src/sim/mem_state.cc:443: info: Increasing stack size by one page.
src/sim/mem_state.cc:443: info: Increasing stack size by one page.
src/sim/mem_state.cc:443: info: Increasing stack size by one page.
src/sim/mem_state.cc:443: info: Increasing stack size by one page.
src/sim/mem_state.cc:443: info: Increasing stack size by one page.
src/sim/mem_state.cc:443: info: Increasing stack size by one page.
src/sim/mem_state.cc:443: info: Increasing stack size by one page.
src/sim/mem_state.cc:443: info: Increasing stack size by one page.
src/sim/mem_state.cc:443: info: Increasing stack size by one page.
src/sim/mem_state.cc:443: info: Increasing stack size by one page.
src/sim/mem_state.cc:443: info: Increasing stack size by one page.
src/sim/mem_state.cc:443: info: Increasing stack size by one page.
src/sim/mem_state.cc:443: info: Increasing stack size by one page.
src/sim/mem_state.cc:443: info: Increasing stack size by one page.
src/sim/mem_state.cc:443: info: Increasing stack size by one page.
src/sim/mem_state.cc:443: info: Increasing stack size by one page.
src/sim/mem_state.cc:443: info: Increasing stack size by one page.
src/sim/mem_state.cc:443: info: Increasing stack size by one page.
src/sim/mem_state.cc:443: info: Increasing stack size by one page.
src/sim/mem_state.cc:443: info: Increasing stack size by one page.
src/sim/mem_state.cc:443: info: Increasing stack size by one page.
src/sim/mem_state.cc:443: info: Increasing stack size by one page.
src/sim/mem_state.cc:443: info: Increasing stack size by one page.
src/sim/mem_state.cc:443: info: Increasing stack size by one page.
warn: No behavior was set by the user for work end. Default behavior is dumping the stats and continuing.
[HOOKS] Leaving ROI
QUERY TIME: 0.027 seconds
[HOOKS] Total time spent in ROI: 0.026530s
[HOOKS] Terminating
All simulation events were successful.
Done with the simulation after 310.78 seconds of wall clock time!
