Extracting input_simdev.tar for blackscholes...
Running blackscholes with simdev configuration...
Global frequency set at 1000000000000 ticks per second
warn: rounding error > tolerance
    29.103830 rounded to 29
warn: rounding error > tolerance
    29.103830 rounded to 29
warn: No dot file generated. Please install pydot to generate the dot file and pdf.
warn: rounding error > tolerance
    29.103830 rounded to 29
src/base/statistics.hh:279: warn: One of the stats is a legacy stat. Legacy stat is a stat that does not belong to any statistics::Group. Legacy stat is deprecated.
src/base/stats/storage.hh:278: warn: Bucket size (4) does not divide range [1:32] into equal-sized buckets. Rounding up.
src/base/stats/storage.hh:278: warn: Bucket size (4) does not divide range [1:8] into equal-sized buckets. Rounding up.
src/base/remote_gdb.cc:418: warn: Sockets disabled, not accepting gdb connections
gem5 Simulator System.  https://www.gem5.org
gem5 is copyrighted software; use the --copyright option for details.

gem5 version 25.1.0.0
gem5 compiled Apr  9 2026 07:51:36
gem5 started Apr 18 2026 19:41:38
gem5 executing on shafin-HP-Laptop-14s-fq1786, pid 1385143
command line: ./gem5/build/ALL/gem5.opt se_binary_workload.py --isa ARM --binary-path /home/shafin/repos/parsec-gem5/pkgs/apps/blackscholes/inst/aarch64-linux.gcc-hooks/bin/blackscholes --binary-args '1 in_16.txt prices.txt'

info: Standard input is not a terminal, disabling listeners.
Parameters:
  binary-path: /home/shafin/repos/parsec-gem5/pkgs/apps/blackscholes/inst/aarch64-linux.gcc-hooks/bin/blackscholes
  binary_args: 1 in_16.txt prices.txt
  isa: ARM
  rob-size: 512
  lq-size: 32
  sq-size: 32
Running the simulation
Using O3 cpu
src/arch/arm/insts/pseudo.cc:174: warn: 	instruction 'bti' unimplemented
src/arch/arm/insts/pseudo.cc:174: warn: 	instruction 'unallocated_hint' unimplemented
src/arch/arm/insts/pseudo.cc:174: warn: 	instruction 'bti' unimplemented
src/sim/mem_state.cc:443: info: Increasing stack size by one page.
src/sim/syscall_emul.cc:86: warn: ignoring syscall mprotect(...)
src/sim/syscall_emul.cc:86: warn: ignoring syscall mprotect(...)
src/sim/syscall_emul.cc:86: warn: ignoring syscall set_robust_list(...)
src/sim/syscall_emul.cc:97: warn: ignoring syscall rseq(...)
      (further warnings will be suppressed)
src/sim/syscall_emul.cc:86: warn: ignoring syscall mprotect(...)
src/sim/syscall_emul.cc:86: warn: ignoring syscall mprotect(...)
src/sim/syscall_emul.cc:86: warn: ignoring syscall mprotect(...)
src/sim/syscall_emul.cc:86: warn: ignoring syscall mprotect(...)
src/sim/syscall_emul.hh:816: warn: Unsupported ioctl call (return ENOTTY): ioctl(1, 0x802c542a, ...) @ (0x3fffe0d2bc=>0x3fffe0d2c0).(0=>1)
PARSEC Benchmark Suite Version 3.0-beta-20150206
[HOOKS] PARSEC Hooks Version 1.2
Num of Options: 16
Num of Runs: 100
Size of data: 640
[HOOKS] Entering ROI
warn: No behavior was set by the user for work begin. Default behavior is resetting the stats and continuing.
warn: No behavior was set by the user for work end. Default behavior is dumping the stats and continuing.
[HOOKS] Leaving ROI
[HOOKS] Total time spent in ROI: 0.000282s
[HOOKS] Terminating
All simulation events were successful.
Done with the simulation after 7.10 seconds of wall clock time!
Extracting input_simdev.tar for swaptions...
Running swaptions with simdev configuration...
Global frequency set at 1000000000000 ticks per second
warn: rounding error > tolerance
    29.103830 rounded to 29
warn: rounding error > tolerance
    29.103830 rounded to 29
warn: No dot file generated. Please install pydot to generate the dot file and pdf.
warn: rounding error > tolerance
    29.103830 rounded to 29
src/base/statistics.hh:279: warn: One of the stats is a legacy stat. Legacy stat is a stat that does not belong to any statistics::Group. Legacy stat is deprecated.
src/base/stats/storage.hh:278: warn: Bucket size (4) does not divide range [1:32] into equal-sized buckets. Rounding up.
src/base/stats/storage.hh:278: warn: Bucket size (4) does not divide range [1:8] into equal-sized buckets. Rounding up.
src/base/remote_gdb.cc:418: warn: Sockets disabled, not accepting gdb connections
gem5 Simulator System.  https://www.gem5.org
gem5 is copyrighted software; use the --copyright option for details.

gem5 version 25.1.0.0
gem5 compiled Apr  9 2026 07:51:36
gem5 started Apr 18 2026 19:41:46
gem5 executing on shafin-HP-Laptop-14s-fq1786, pid 1385330
command line: ./gem5/build/ALL/gem5.opt se_binary_workload.py --isa ARM --binary-path /home/shafin/repos/parsec-gem5/pkgs/apps/swaptions/inst/aarch64-linux.gcc-hooks/bin/swaptions --binary-args '-ns 3 -sm 50 -nt 1'

info: Standard input is not a terminal, disabling listeners.
Parameters:
  binary-path: /home/shafin/repos/parsec-gem5/pkgs/apps/swaptions/inst/aarch64-linux.gcc-hooks/bin/swaptions
  binary_args: -ns 3 -sm 50 -nt 1
  isa: ARM
  rob-size: 512
  lq-size: 32
  sq-size: 32
Running the simulation
Using O3 cpu
src/arch/arm/insts/pseudo.cc:174: warn: 	instruction 'bti' unimplemented
src/arch/arm/insts/pseudo.cc:174: warn: 	instruction 'unallocated_hint' unimplemented
src/arch/arm/insts/pseudo.cc:174: warn: 	instruction 'bti' unimplemented
src/sim/mem_state.cc:443: info: Increasing stack size by one page.
src/sim/syscall_emul.cc:86: warn: ignoring syscall mprotect(...)
src/sim/syscall_emul.cc:86: warn: ignoring syscall mprotect(...)
src/sim/syscall_emul.cc:86: warn: ignoring syscall mprotect(...)
src/sim/syscall_emul.cc:86: warn: ignoring syscall mprotect(...)
src/sim/syscall_emul.cc:86: warn: ignoring syscall set_robust_list(...)
src/sim/syscall_emul.cc:97: warn: ignoring syscall rseq(...)
      (further warnings will be suppressed)
src/sim/syscall_emul.cc:86: warn: ignoring syscall mprotect(...)
src/sim/syscall_emul.cc:86: warn: ignoring syscall mprotect(...)
src/sim/syscall_emul.cc:86: warn: ignoring syscall mprotect(...)
src/sim/syscall_emul.cc:86: warn: ignoring syscall mprotect(...)
src/sim/syscall_emul.cc:86: warn: ignoring syscall mprotect(...)
src/sim/syscall_emul.cc:86: warn: ignoring syscall mprotect(...)
src/sim/syscall_emul.hh:816: warn: Unsupported ioctl call (return ENOTTY): ioctl(1, 0x802c542a, ...) @ (0x3fffabd2bc=>0x3fffabd2c0).(0=>1)
PARSEC Benchmark Suite Version 3.0-beta-20150206
[HOOKS] PARSEC Hooks Version 1.2
Number of Simulations: 50,  Number of threads: 1 Number of swaptions: 3
[HOOKS] Entering ROI
warn: No behavior was set by the user for work begin. Default behavior is resetting the stats and continuing.
warn: No behavior was set by the user for work end. Default behavior is dumping the stats and continuing.
[HOOKS] Leaving ROI
Swaption 0: [SwaptionPrice: 8.8649313928 StdError: nan] 
Swaption 1: [SwaptionPrice: 4.1659773323 StdError: nan] 
Swaption 2: [SwaptionPrice: 1.0985943354 StdError: nan] 
[HOOKS] Total time spent in ROI: 0.001395s
[HOOKS] Terminating
All simulation events were successful.
Done with the simulation after 29.83 seconds of wall clock time!
Extracting input_simdev.tar for canneal...
Running canneal with simdev configuration...
Global frequency set at 1000000000000 ticks per second
warn: rounding error > tolerance
    29.103830 rounded to 29
warn: rounding error > tolerance
    29.103830 rounded to 29
warn: No dot file generated. Please install pydot to generate the dot file and pdf.
warn: rounding error > tolerance
    29.103830 rounded to 29
src/base/statistics.hh:279: warn: One of the stats is a legacy stat. Legacy stat is a stat that does not belong to any statistics::Group. Legacy stat is deprecated.
src/base/stats/storage.hh:278: warn: Bucket size (4) does not divide range [1:32] into equal-sized buckets. Rounding up.
src/base/stats/storage.hh:278: warn: Bucket size (4) does not divide range [1:8] into equal-sized buckets. Rounding up.
src/base/remote_gdb.cc:418: warn: Sockets disabled, not accepting gdb connections
gem5 Simulator System.  https://www.gem5.org
gem5 is copyrighted software; use the --copyright option for details.

gem5 version 25.1.0.0
gem5 compiled Apr  9 2026 07:51:36
gem5 started Apr 18 2026 19:42:17
gem5 executing on shafin-HP-Laptop-14s-fq1786, pid 1385589
command line: ./gem5/build/ALL/gem5.opt se_binary_workload.py --isa ARM --binary-path /home/shafin/repos/parsec-gem5/pkgs/kernels/canneal/inst/aarch64-linux.gcc-hooks/bin/canneal --binary-args '1 100 300 100.nets 2'

info: Standard input is not a terminal, disabling listeners.
Parameters:
  binary-path: /home/shafin/repos/parsec-gem5/pkgs/kernels/canneal/inst/aarch64-linux.gcc-hooks/bin/canneal
  binary_args: 1 100 300 100.nets 2
  isa: ARM
  rob-size: 512
  lq-size: 32
  sq-size: 32
Running the simulation
Using O3 cpu
src/arch/arm/insts/pseudo.cc:174: warn: 	instruction 'bti' unimplemented
src/arch/arm/insts/pseudo.cc:174: warn: 	instruction 'unallocated_hint' unimplemented
src/arch/arm/insts/pseudo.cc:174: warn: 	instruction 'bti' unimplemented
src/sim/mem_state.cc:443: info: Increasing stack size by one page.
src/sim/syscall_emul.cc:86: warn: ignoring syscall mprotect(...)
src/sim/syscall_emul.cc:86: warn: ignoring syscall mprotect(...)
src/sim/syscall_emul.cc:86: warn: ignoring syscall mprotect(...)
src/sim/syscall_emul.cc:86: warn: ignoring syscall mprotect(...)
src/sim/syscall_emul.cc:86: warn: ignoring syscall set_robust_list(...)
src/sim/syscall_emul.cc:97: warn: ignoring syscall rseq(...)
      (further warnings will be suppressed)
src/sim/syscall_emul.cc:86: warn: ignoring syscall mprotect(...)
src/sim/syscall_emul.cc:86: warn: ignoring syscall mprotect(...)
src/sim/syscall_emul.cc:86: warn: ignoring syscall mprotect(...)
src/sim/syscall_emul.cc:86: warn: ignoring syscall mprotect(...)
src/sim/syscall_emul.cc:86: warn: ignoring syscall mprotect(...)
src/sim/syscall_emul.cc:86: warn: ignoring syscall mprotect(...)
src/sim/syscall_emul.hh:816: warn: Unsupported ioctl call (return ENOTTY): ioctl(1, 0x802c542a, ...) @ (0x3fffabd2bc=>0x3fffabd2c0).(0=>1)
PARSEC Benchmark Suite Version 3.0-beta-20150206
[HOOKS] PARSEC Hooks Version 1.2
Threadcount: 1
100 swaps per temperature step
start temperature: 300
netlist filename: 100.nets
number of temperature steps: 2
locs created
locs assigned
netlist created. 100 elements.
[HOOKS] Entering ROI
warn: No behavior was set by the user for work begin. Default behavior is resetting the stats and continuing.
warn: No behavior was set by the user for work end. Default behavior is dumping the stats and continuing.
[HOOKS] Leaving ROI
Final routing is: 4365
[HOOKS] Total time spent in ROI: 0.000274s
[HOOKS] Terminating
All simulation events were successful.
Done with the simulation after 47.72 seconds of wall clock time!
Extracting input_simdev.tar for freqmine...
Running freqmine with simdev configuration...
Global frequency set at 1000000000000 ticks per second
warn: rounding error > tolerance
    29.103830 rounded to 29
warn: rounding error > tolerance
    29.103830 rounded to 29
warn: No dot file generated. Please install pydot to generate the dot file and pdf.
warn: rounding error > tolerance
    29.103830 rounded to 29
src/base/statistics.hh:279: warn: One of the stats is a legacy stat. Legacy stat is a stat that does not belong to any statistics::Group. Legacy stat is deprecated.
src/base/stats/storage.hh:278: warn: Bucket size (4) does not divide range [1:32] into equal-sized buckets. Rounding up.
src/base/stats/storage.hh:278: warn: Bucket size (4) does not divide range [1:8] into equal-sized buckets. Rounding up.
src/base/remote_gdb.cc:418: warn: Sockets disabled, not accepting gdb connections
gem5 Simulator System.  https://www.gem5.org
gem5 is copyrighted software; use the --copyright option for details.

gem5 version 25.1.0.0
gem5 compiled Apr  9 2026 07:51:36
gem5 started Apr 18 2026 19:43:05
gem5 executing on shafin-HP-Laptop-14s-fq1786, pid 1386055
command line: ./gem5/build/ALL/gem5.opt se_binary_workload.py --isa ARM --binary-path /home/shafin/repos/parsec-gem5/pkgs/apps/freqmine/inst/aarch64-linux.gcc-hooks/bin/freqmine --binary-args 'T10I4D100K_1k.dat 3'

info: Standard input is not a terminal, disabling listeners.
Parameters:
  binary-path: /home/shafin/repos/parsec-gem5/pkgs/apps/freqmine/inst/aarch64-linux.gcc-hooks/bin/freqmine
  binary_args: T10I4D100K_1k.dat 3
  isa: ARM
  rob-size: 512
  lq-size: 32
  sq-size: 32
Running the simulation
Using O3 cpu
src/arch/arm/insts/pseudo.cc:174: warn: 	instruction 'bti' unimplemented
src/arch/arm/insts/pseudo.cc:174: warn: 	instruction 'unallocated_hint' unimplemented
src/arch/arm/insts/pseudo.cc:174: warn: 	instruction 'bti' unimplemented
src/sim/mem_state.cc:443: info: Increasing stack size by one page.
src/sim/syscall_emul.cc:86: warn: ignoring syscall mprotect(...)
src/sim/syscall_emul.cc:86: warn: ignoring syscall mprotect(...)
src/sim/syscall_emul.cc:86: warn: ignoring syscall mprotect(...)
src/sim/syscall_emul.cc:86: warn: ignoring syscall mprotect(...)
src/sim/syscall_emul.cc:86: warn: ignoring syscall set_robust_list(...)
src/sim/syscall_emul.cc:97: warn: ignoring syscall rseq(...)
      (further warnings will be suppressed)
src/sim/syscall_emul.cc:86: warn: ignoring syscall mprotect(...)
src/sim/syscall_emul.cc:86: warn: ignoring syscall mprotect(...)
src/sim/syscall_emul.cc:86: warn: ignoring syscall mprotect(...)
src/sim/syscall_emul.cc:86: warn: ignoring syscall mprotect(...)
src/sim/syscall_emul.cc:86: warn: ignoring syscall mprotect(...)
src/sim/syscall_emul.cc:86: warn: ignoring syscall mprotect(...)
src/sim/syscall_emul.hh:816: warn: Unsupported ioctl call (return ENOTTY): ioctl(1, 0x802c542a, ...) @ (0x3fffb8d2bc=>0x3fffb8d2c0).(0=>1)
PARSEC Benchmark Suite Version 3.0-beta-20150206
[HOOKS] PARSEC Hooks Version 1.2
[HOOKS] Entering ROI
warn: No behavior was set by the user for work begin. Default behavior is resetting the stats and continuing.
src/sim/syscall_emul.cc:97: warn: ignoring syscall sched_setaffinity(...)
      (further warnings will be suppressed)
gem5.opt: src/cpu/timebuf.hh:54: void gem5::TimeBuffer<T>::valid(int) const [with T = gem5::o3::IEWStruct]: Assertion `idx >= -past && idx <= future' failed.
Program aborted at tick 6172798702
--- BEGIN LIBC BACKTRACE ---
./gem5/build/ALL/gem5.opt(_ZN4gem515print_backtraceEv+0x2b) [0x63b9ee7fad7b]
./gem5/build/ALL/gem5.opt(_ZN4gem512abortHandlerEi+0x4c) [0x63b9ee82360c]
/lib/x86_64-linux-gnu/libc.so.6(+0x45f60) [0x73a877645f60]
/lib/x86_64-linux-gnu/libc.so.6(pthread_kill+0x11d) [0x73a8776a5fed]
/lib/x86_64-linux-gnu/libc.so.6(gsignal+0x1e) [0x73a877645e2e]
/lib/x86_64-linux-gnu/libc.so.6(abort+0x27) [0x73a877628888]
/lib/x86_64-linux-gnu/libc.so.6(__assert_perror_fail+0x0) [0x73a8776287f0]
./gem5/build/ALL/gem5.opt(+0x2156fa9) [0x63b9e964ffa9]
./gem5/build/ALL/gem5.opt(_ZN4gem52o37LSQUnit9writebackERKNS_14RefCountingPtrINS0_7DynInstEEEPNS_6PacketE+0x15b) [0x63b9ead94d8b]
./gem5/build/ALL/gem5.opt(_ZN4gem52o37LSQUnit18completeDataAccessEPNS_6PacketE+0x173) [0x63b9ead96923]
./gem5/build/ALL/gem5.opt(_ZN4gem52o33LSQ17SingleDataRequest14recvTimingRespEPNS_6PacketE+0x32) [0x63b9ead806b2]
./gem5/build/ALL/gem5.opt(_ZN4gem52o33LSQ14recvTimingRespEPNS_6PacketE+0xb4) [0x63b9ead84f54]
./gem5/build/ALL/gem5.opt(_ZN4gem515RespPacketQueue10sendTimingEPNS_6PacketE+0x36) [0x63b9ed905286]
./gem5/build/ALL/gem5.opt(_ZN4gem511PacketQueue18sendDeferredPacketEv+0x6f) [0x63b9ed9078af]
./gem5/build/ALL/gem5.opt(_ZN4gem510EventQueue10serviceOneEv+0xb5) [0x63b9ee812cc5]
./gem5/build/ALL/gem5.opt(_ZN4gem59doSimLoopEPNS_10EventQueueE+0x68) [0x63b9ee842698]
./gem5/build/ALL/gem5.opt(_ZN4gem58simulateEm+0x26b) [0x63b9ee842d8b]
./gem5/build/ALL/gem5.opt(+0x763ffdf) [0x63b9eeb38fdf]
./gem5/build/ALL/gem5.opt(+0x2b1f509) [0x63b9ea018509]
/lib/x86_64-linux-gnu/libpython3.13.so.1.0(+0x176875) [0x73a878976875]
/lib/x86_64-linux-gnu/libpython3.13.so.1.0(PyObject_Call+0x69) [0x73a87891b5f9]
/lib/x86_64-linux-gnu/libpython3.13.so.1.0(_PyEval_EvalFrameDefault+0x8e4) [0x73a878a5db24]
/lib/x86_64-linux-gnu/libpython3.13.so.1.0(PyEval_EvalCode+0xd9) [0x73a878a5d159]
/lib/x86_64-linux-gnu/libpython3.13.so.1.0(+0x256f29) [0x73a878a56f29]
/lib/x86_64-linux-gnu/libpython3.13.so.1.0(+0x175c18) [0x73a878975c18]
/lib/x86_64-linux-gnu/libpython3.13.so.1.0(PyObject_Vectorcall+0x5e) [0x73a87891957e]
/lib/x86_64-linux-gnu/libpython3.13.so.1.0(_PyEval_EvalFrameDefault+0xf69) [0x73a878a5e1a9]
./gem5/build/ALL/gem5.opt(+0x7330536) [0x63b9ee829536]
./gem5/build/ALL/gem5.opt(main+0x217) [0x63b9e9ffb5e7]
/lib/x86_64-linux-gnu/libc.so.6(+0x2a575) [0x73a87762a575]
/lib/x86_64-linux-gnu/libc.so.6(__libc_start_main+0x88) [0x73a87762a628]
./gem5/build/ALL/gem5.opt(_start+0x25) [0x63b9ea004805]
--- END LIBC BACKTRACE ---
For more info on how to address this issue, please visit https://www.gem5.org/documentation/general_docs/common-errors/ 

parsec-run.sh: line 16: 1386055 Aborted                 (core dumped) ./gem5/build/ALL/gem5.opt se_binary_workload.py --isa ARM --binary-path $exppkgdir/inst/aarch64-linux.gcc-hooks/bin/$NAME --binary-args "${run_args}"
Extracting input_test.tar for fluidanimate...
Running fluidanimate with test configuration...
Global frequency set at 1000000000000 ticks per second
warn: rounding error > tolerance
    29.103830 rounded to 29
warn: rounding error > tolerance
    29.103830 rounded to 29
warn: No dot file generated. Please install pydot to generate the dot file and pdf.
warn: rounding error > tolerance
    29.103830 rounded to 29
src/base/statistics.hh:279: warn: One of the stats is a legacy stat. Legacy stat is a stat that does not belong to any statistics::Group. Legacy stat is deprecated.
src/base/stats/storage.hh:278: warn: Bucket size (4) does not divide range [1:32] into equal-sized buckets. Rounding up.
src/base/stats/storage.hh:278: warn: Bucket size (4) does not divide range [1:8] into equal-sized buckets. Rounding up.
src/base/remote_gdb.cc:418: warn: Sockets disabled, not accepting gdb connections
gem5 Simulator System.  https://www.gem5.org
gem5 is copyrighted software; use the --copyright option for details.

gem5 version 25.1.0.0
gem5 compiled Apr  9 2026 07:51:36
gem5 started Apr 18 2026 19:44:04
gem5 executing on shafin-HP-Laptop-14s-fq1786, pid 1386745
command line: ./gem5/build/ALL/gem5.opt se_binary_workload.py --isa ARM --binary-path /home/shafin/repos/parsec-gem5/pkgs/apps/fluidanimate/inst/aarch64-linux.gcc-hooks/bin/fluidanimate --binary-args '1 1 in_5K.fluid out.fluid'

info: Standard input is not a terminal, disabling listeners.
Parameters:
  binary-path: /home/shafin/repos/parsec-gem5/pkgs/apps/fluidanimate/inst/aarch64-linux.gcc-hooks/bin/fluidanimate
  binary_args: 1 1 in_5K.fluid out.fluid
  isa: ARM
  rob-size: 512
  lq-size: 32
  sq-size: 32
Running the simulation
Using O3 cpu
src/arch/arm/insts/pseudo.cc:174: warn: 	instruction 'bti' unimplemented
src/arch/arm/insts/pseudo.cc:174: warn: 	instruction 'unallocated_hint' unimplemented
src/arch/arm/insts/pseudo.cc:174: warn: 	instruction 'bti' unimplemented
src/sim/mem_state.cc:443: info: Increasing stack size by one page.
src/sim/syscall_emul.cc:86: warn: ignoring syscall mprotect(...)
src/sim/syscall_emul.cc:86: warn: ignoring syscall mprotect(...)
src/sim/syscall_emul.cc:86: warn: ignoring syscall mprotect(...)
src/sim/syscall_emul.cc:86: warn: ignoring syscall mprotect(...)
src/sim/syscall_emul.cc:86: warn: ignoring syscall set_robust_list(...)
src/sim/syscall_emul.cc:97: warn: ignoring syscall rseq(...)
      (further warnings will be suppressed)
src/sim/syscall_emul.cc:86: warn: ignoring syscall mprotect(...)
src/sim/syscall_emul.cc:86: warn: ignoring syscall mprotect(...)
src/sim/syscall_emul.cc:86: warn: ignoring syscall mprotect(...)
src/sim/syscall_emul.cc:86: warn: ignoring syscall mprotect(...)
src/sim/syscall_emul.cc:86: warn: ignoring syscall mprotect(...)
src/sim/syscall_emul.cc:86: warn: ignoring syscall mprotect(...)
src/sim/syscall_emul.hh:816: warn: Unsupported ioctl call (return ENOTTY): ioctl(1, 0x802c542a, ...) @ (0x3fffabd2bc=>0x3fffabd2c0).(0=>1)
PARSEC Benchmark Suite Version 3.0-beta-20150206
[HOOKS] PARSEC Hooks Version 1.2
Loading file "in_5K.fluid"...
Number of cells: 4725
Number of particles: 4800
[HOOKS] Entering ROI
warn: No behavior was set by the user for work begin. Default behavior is resetting the stats and continuing.
warn: No behavior was set by the user for work end. Default behavior is dumping the stats and continuing.
[HOOKS] Leaving ROI
Saving file "out.fluid"...
[HOOKS] Total time spent in ROI: 0.030377s
[HOOKS] Terminating
All simulation events were successful.
Done with the simulation after 786.98 seconds of wall clock time!
Extracting input_test.tar for ferret...
Running ferret with test configuration...
Global frequency set at 1000000000000 ticks per second
warn: rounding error > tolerance
    29.103830 rounded to 29
warn: rounding error > tolerance
    29.103830 rounded to 29
warn: No dot file generated. Please install pydot to generate the dot file and pdf.
warn: rounding error > tolerance
    29.103830 rounded to 29
src/base/statistics.hh:279: warn: One of the stats is a legacy stat. Legacy stat is a stat that does not belong to any statistics::Group. Legacy stat is deprecated.
src/base/stats/storage.hh:278: warn: Bucket size (4) does not divide range [1:32] into equal-sized buckets. Rounding up.
src/base/stats/storage.hh:278: warn: Bucket size (4) does not divide range [1:8] into equal-sized buckets. Rounding up.
src/base/remote_gdb.cc:418: warn: Sockets disabled, not accepting gdb connections
gem5 Simulator System.  https://www.gem5.org
gem5 is copyrighted software; use the --copyright option for details.

gem5 version 25.1.0.0
gem5 compiled Apr  9 2026 07:51:36
gem5 started Apr 18 2026 19:57:12
gem5 executing on shafin-HP-Laptop-14s-fq1786, pid 1395879
command line: ./gem5/build/ALL/gem5.opt se_binary_workload.py --isa ARM --binary-path /home/shafin/repos/parsec-gem5/pkgs/apps/ferret/inst/aarch64-linux.gcc-hooks/bin/ferret --binary-args 'corel lsh queries 5 5 1 output.txt'

info: Standard input is not a terminal, disabling listeners.
Parameters:
  binary-path: /home/shafin/repos/parsec-gem5/pkgs/apps/ferret/inst/aarch64-linux.gcc-hooks/bin/ferret
  binary_args: corel lsh queries 5 5 1 output.txt
  isa: ARM
  rob-size: 512
  lq-size: 32
  sq-size: 32
Running the simulation
Using O3 cpu
src/sim/syscall_emul.cc:86: warn: ignoring syscall set_robust_list(...)
src/sim/syscall_emul.cc:97: warn: ignoring syscall rseq(...)
      (further warnings will be suppressed)
src/sim/mem_state.cc:443: info: Increasing stack size by one page.
src/sim/syscall_emul.hh:1127: warn: readlink() called on '/proc/self/exe' may yield unexpected results in various settings.
      Returning '/home/shafin/repos/parsec-gem5/pkgs/apps/ferret/inst/aarch64-linux.gcc-hooks/bin/ferret'
src/arch/arm/insts/pseudo.cc:174: warn: 	instruction 'bti' unimplemented
src/sim/syscall_emul.cc:86: warn: ignoring syscall mprotect(...)
PARSEC Benchmark Suite Version 3.0-beta-20150206
[HOOKS] PARSEC Hooks Version 1.2
src/sim/mem_state.cc:443: info: Increasing stack size by one page.
src/sim/mem_state.cc:443: info: Increasing stack size by one page.
src/sim/mem_state.cc:443: info: Increasing stack size by one page.
[HOOKS] Entering ROI
warn: No behavior was set by the user for work begin. Default behavior is resetting the stats and continuing.
src/sim/mem_state.cc:443: info: Increasing stack size by one page.
src/sim/mem_state.cc:443: info: Increasing stack size by one page.
src/sim/mem_state.cc:443: info: Increasing stack size by one page.
src/sim/mem_state.cc:443: info: Increasing stack size by one page.
src/sim/mem_state.cc:443: info: Increasing stack size by one page.
src/sim/mem_state.cc:443: info: Increasing stack size by one page.
src/sim/mem_state.cc:443: info: Increasing stack size by one page.
src/sim/mem_state.cc:443: info: Increasing stack size by one page.
src/sim/mem_state.cc:443: info: Increasing stack size by one page.
src/sim/mem_state.cc:443: info: Increasing stack size by one page.
src/sim/mem_state.cc:443: info: Increasing stack size by one page.
src/sim/mem_state.cc:443: info: Increasing stack size by one page.
src/sim/mem_state.cc:443: info: Increasing stack size by one page.
src/sim/mem_state.cc:443: info: Increasing stack size by one page.
src/sim/mem_state.cc:443: info: Increasing stack size by one page.
src/sim/mem_state.cc:443: info: Increasing stack size by one page.
src/sim/mem_state.cc:443: info: Increasing stack size by one page.
src/sim/mem_state.cc:443: info: Increasing stack size by one page.
src/sim/mem_state.cc:443: info: Increasing stack size by one page.
src/sim/mem_state.cc:443: info: Increasing stack size by one page.
src/sim/mem_state.cc:443: info: Increasing stack size by one page.
src/sim/mem_state.cc:443: info: Increasing stack size by one page.
src/sim/mem_state.cc:443: info: Increasing stack size by one page.
src/sim/mem_state.cc:443: info: Increasing stack size by one page.
src/sim/mem_state.cc:443: info: Increasing stack size by one page.
src/sim/mem_state.cc:443: info: Increasing stack size by one page.
src/sim/mem_state.cc:443: info: Increasing stack size by one page.
src/sim/mem_state.cc:443: info: Increasing stack size by one page.
src/sim/mem_state.cc:443: info: Increasing stack size by one page.
src/sim/mem_state.cc:443: info: Increasing stack size by one page.
src/sim/mem_state.cc:443: info: Increasing stack size by one page.
src/sim/mem_state.cc:443: info: Increasing stack size by one page.
src/sim/mem_state.cc:443: info: Increasing stack size by one page.
src/sim/mem_state.cc:443: info: Increasing stack size by one page.
src/sim/mem_state.cc:443: info: Increasing stack size by one page.
src/sim/mem_state.cc:443: info: Increasing stack size by one page.
src/sim/mem_state.cc:443: info: Increasing stack size by one page.
src/sim/mem_state.cc:443: info: Increasing stack size by one page.
src/sim/mem_state.cc:443: info: Increasing stack size by one page.
src/sim/mem_state.cc:443: info: Increasing stack size by one page.
src/sim/mem_state.cc:443: info: Increasing stack size by one page.
src/sim/mem_state.cc:443: info: Increasing stack size by one page.
src/sim/mem_state.cc:443: info: Increasing stack size by one page.
src/sim/mem_state.cc:443: info: Increasing stack size by one page.
src/sim/mem_state.cc:443: info: Increasing stack size by one page.
src/sim/mem_state.cc:443: info: Increasing stack size by one page.
src/sim/mem_state.cc:443: info: Increasing stack size by one page.
src/sim/mem_state.cc:443: info: Increasing stack size by one page.
src/sim/mem_state.cc:443: info: Increasing stack size by one page.
src/sim/mem_state.cc:443: info: Increasing stack size by one page.
src/sim/mem_state.cc:443: info: Increasing stack size by one page.
src/sim/mem_state.cc:443: info: Increasing stack size by one page.
src/sim/mem_state.cc:443: info: Increasing stack size by one page.
src/sim/mem_state.cc:443: info: Increasing stack size by one page.
src/sim/mem_state.cc:443: info: Increasing stack size by one page.
src/sim/mem_state.cc:443: info: Increasing stack size by one page.
src/sim/mem_state.cc:443: info: Increasing stack size by one page.
src/sim/mem_state.cc:443: info: Increasing stack size by one page.
src/sim/mem_state.cc:443: info: Increasing stack size by one page.
src/sim/mem_state.cc:443: info: Increasing stack size by one page.
src/sim/mem_state.cc:443: info: Increasing stack size by one page.
src/sim/mem_state.cc:443: info: Increasing stack size by one page.
src/sim/mem_state.cc:443: info: Increasing stack size by one page.
src/sim/mem_state.cc:443: info: Increasing stack size by one page.
src/sim/mem_state.cc:443: info: Increasing stack size by one page.
src/sim/mem_state.cc:443: info: Increasing stack size by one page.
src/sim/mem_state.cc:443: info: Increasing stack size by one page.
src/sim/mem_state.cc:443: info: Increasing stack size by one page.
src/sim/mem_state.cc:443: info: Increasing stack size by one page.
src/sim/mem_state.cc:443: info: Increasing stack size by one page.
src/sim/mem_state.cc:443: info: Increasing stack size by one page.
src/sim/mem_state.cc:443: info: Increasing stack size by one page.
src/sim/mem_state.cc:443: info: Increasing stack size by one page.
src/sim/mem_state.cc:443: info: Increasing stack size by one page.
src/sim/mem_state.cc:443: info: Increasing stack size by one page.
src/sim/mem_state.cc:443: info: Increasing stack size by one page.
src/sim/mem_state.cc:443: info: Increasing stack size by one page.
src/sim/mem_state.cc:443: info: Increasing stack size by one page.
src/sim/mem_state.cc:443: info: Increasing stack size by one page.
src/sim/mem_state.cc:443: info: Increasing stack size by one page.
src/sim/mem_state.cc:443: info: Increasing stack size by one page.
src/sim/mem_state.cc:443: info: Increasing stack size by one page.
src/sim/mem_state.cc:443: info: Increasing stack size by one page.
src/sim/mem_state.cc:443: info: Increasing stack size by one page.
src/sim/mem_state.cc:443: info: Increasing stack size by one page.
src/sim/mem_state.cc:443: info: Increasing stack size by one page.
src/sim/mem_state.cc:443: info: Increasing stack size by one page.
src/sim/mem_state.cc:443: info: Increasing stack size by one page.
src/sim/mem_state.cc:443: info: Increasing stack size by one page.
src/sim/mem_state.cc:443: info: Increasing stack size by one page.
src/sim/mem_state.cc:443: info: Increasing stack size by one page.
src/sim/mem_state.cc:443: info: Increasing stack size by one page.
src/sim/mem_state.cc:443: info: Increasing stack size by one page.
src/sim/mem_state.cc:443: info: Increasing stack size by one page.
src/sim/mem_state.cc:443: info: Increasing stack size by one page.
src/sim/mem_state.cc:443: info: Increasing stack size by one page.
src/sim/mem_state.cc:443: info: Increasing stack size by one page.
src/sim/mem_state.cc:443: info: Increasing stack size by one page.
src/sim/mem_state.cc:443: info: Increasing stack size by one page.
src/sim/mem_state.cc:443: info: Increasing stack size by one page.
src/sim/mem_state.cc:443: info: Increasing stack size by one page.
src/sim/mem_state.cc:443: info: Increasing stack size by one page.
src/sim/mem_state.cc:443: info: Increasing stack size by one page.
src/sim/mem_state.cc:443: info: Increasing stack size by one page.
src/sim/mem_state.cc:443: info: Increasing stack size by one page.
src/sim/mem_state.cc:443: info: Increasing stack size by one page.
src/sim/mem_state.cc:443: info: Increasing stack size by one page.
src/sim/mem_state.cc:443: info: Increasing stack size by one page.
src/sim/mem_state.cc:443: info: Increasing stack size by one page.
src/sim/mem_state.cc:443: info: Increasing stack size by one page.
src/sim/mem_state.cc:443: info: Increasing stack size by one page.
src/sim/mem_state.cc:443: info: Increasing stack size by one page.
src/sim/mem_state.cc:443: info: Increasing stack size by one page.
src/sim/mem_state.cc:443: info: Increasing stack size by one page.
src/sim/mem_state.cc:443: info: Increasing stack size by one page.
src/sim/mem_state.cc:443: info: Increasing stack size by one page.
src/sim/mem_state.cc:443: info: Increasing stack size by one page.
src/sim/mem_state.cc:443: info: Increasing stack size by one page.
src/sim/mem_state.cc:443: info: Increasing stack size by one page.
src/sim/mem_state.cc:443: info: Increasing stack size by one page.
src/sim/mem_state.cc:443: info: Increasing stack size by one page.
src/sim/mem_state.cc:443: info: Increasing stack size by one page.
src/sim/mem_state.cc:443: info: Increasing stack size by one page.
src/sim/mem_state.cc:443: info: Increasing stack size by one page.
src/sim/mem_state.cc:443: info: Increasing stack size by one page.
src/sim/mem_state.cc:443: info: Increasing stack size by one page.
src/sim/mem_state.cc:443: info: Increasing stack size by one page.
src/sim/mem_state.cc:443: info: Increasing stack size by one page.
src/sim/mem_state.cc:443: info: Increasing stack size by one page.
src/sim/mem_state.cc:443: info: Increasing stack size by one page.
src/sim/mem_state.cc:443: info: Increasing stack size by one page.
src/sim/mem_state.cc:443: info: Increasing stack size by one page.
src/sim/mem_state.cc:443: info: Increasing stack size by one page.
src/sim/mem_state.cc:443: info: Increasing stack size by one page.
src/sim/mem_state.cc:443: info: Increasing stack size by one page.
src/sim/mem_state.cc:443: info: Increasing stack size by one page.
src/sim/mem_state.cc:443: info: Increasing stack size by one page.
src/sim/mem_state.cc:443: info: Increasing stack size by one page.
src/sim/mem_state.cc:443: info: Increasing stack size by one page.
src/sim/mem_state.cc:443: info: Increasing stack size by one page.
src/sim/mem_state.cc:443: info: Increasing stack size by one page.
src/sim/mem_state.cc:443: info: Increasing stack size by one page.
src/sim/mem_state.cc:443: info: Increasing stack size by one page.
src/sim/mem_state.cc:443: info: Increasing stack size by one page.
src/sim/mem_state.cc:443: info: Increasing stack size by one page.
src/sim/mem_state.cc:443: info: Increasing stack size by one page.
src/sim/mem_state.cc:443: info: Increasing stack size by one page.
src/sim/mem_state.cc:443: info: Increasing stack size by one page.
src/sim/mem_state.cc:443: info: Increasing stack size by one page.
src/sim/mem_state.cc:443: info: Increasing stack size by one page.
src/sim/mem_state.cc:443: info: Increasing stack size by one page.
src/sim/mem_state.cc:443: info: Increasing stack size by one page.
src/sim/mem_state.cc:443: info: Increasing stack size by one page.
warn: No behavior was set by the user for work end. Default behavior is dumping the stats and continuing.
[HOOKS] Leaving ROI
QUERY TIME: 0.020 seconds
[HOOKS] Total time spent in ROI: 0.019538s
[HOOKS] Terminating
All simulation events were successful.
Done with the simulation after 205.33 seconds of wall clock time!
