Running with ISA=ARM, SQ/LQ size=8, write-ratio=50
Global frequency set at 1000000000000 ticks per second
warn: rounding error > tolerance
    29.103830 rounded to 29
warn: rounding error > tolerance
    29.103830 rounded to 29
warn: No dot file generated. Please install pydot to generate the dot file and pdf.
warn: rounding error > tolerance
    29.103830 rounded to 29
src/base/statistics.hh:279: warn: One of the stats is a legacy stat. Legacy stat is a stat that does not belong to any statistics::Group. Legacy stat is deprecated.
src/base/stats/storage.hh:278: warn: Bucket size (4) does not divide range [1:32] into equal-sized buckets. Rounding up.
src/base/stats/storage.hh:278: warn: Bucket size (4) does not divide range [1:8] into equal-sized buckets. Rounding up.
src/base/remote_gdb.cc:418: warn: Sockets disabled, not accepting gdb connections
gem5 Simulator System.  https://www.gem5.org
gem5 is copyrighted software; use the --copyright option for details.

gem5 version 25.1.0.0
gem5 compiled Apr  9 2026 07:51:36
gem5 started Apr 18 2026 01:35:53
gem5 executing on shafin-HP-Laptop-14s-fq1786, pid 637560
command line: ./gem5/build/ALL/gem5.opt rw_ratio_bench.py --binary-path rw_ratio_bench-ARM --isa ARM --sq-size 8 --lq-size 8 --write-ratio 50

info: Standard input is not a terminal, disabling listeners.
Parameters:
  binary-path: rw_ratio_bench-ARM
  write-ratio: 50
  isa: ARM
  rob-size: 512
  lq-size: 8
  sq-size: 8
Running the simulation
Using O3 cpu
src/arch/arm/insts/pseudo.cc:174: warn: 	instruction 'bti' unimplemented
src/sim/syscall_emul.cc:86: warn: ignoring syscall set_robust_list(...)
src/sim/syscall_emul.cc:97: warn: ignoring syscall rseq(...)
      (further warnings will be suppressed)
src/sim/mem_state.cc:443: info: Increasing stack size by one page.
src/sim/syscall_emul.hh:1127: warn: readlink() called on '/proc/self/exe' may yield unexpected results in various settings.
      Returning '/media/shafin/secondary/CXL-consistency-tax/rw_ratio_bench-ARM'
src/sim/syscall_emul.cc:86: warn: ignoring syscall mprotect(...)
src/arch/arm/insts/pseudo.cc:174: warn: 	instruction 'unallocated_hint' unimplemented
src/arch/arm/insts/pseudo.cc:174: warn: 	instruction 'bti' unimplemented
src/sim/syscall_emul.hh:816: warn: Unsupported ioctl call (return ENOTTY): ioctl(1, 0x802c542a, ...) @ (0x442c5c=>0x442c60).(0=>1)
elements=1000000 ops=100000 write_ratio=50 seed=1
elapsed=0.006326 s
read_ops=49841 (7.879 Mop/s)
write_ops=50159 (7.929 Mop/s)
total_ops=100000 (15.809 Mop/s)
read_sum=1984160668027299065
write_sum=15127924039229570755
All simulation events were successful.
Done with the simulation after 59.14 seconds of wall clock time!
Running with ISA=ARM, SQ/LQ size=16, write-ratio=50
Global frequency set at 1000000000000 ticks per second
warn: rounding error > tolerance
    29.103830 rounded to 29
warn: rounding error > tolerance
    29.103830 rounded to 29
warn: No dot file generated. Please install pydot to generate the dot file and pdf.
warn: rounding error > tolerance
    29.103830 rounded to 29
src/base/statistics.hh:279: warn: One of the stats is a legacy stat. Legacy stat is a stat that does not belong to any statistics::Group. Legacy stat is deprecated.
src/base/stats/storage.hh:278: warn: Bucket size (4) does not divide range [1:32] into equal-sized buckets. Rounding up.
src/base/stats/storage.hh:278: warn: Bucket size (4) does not divide range [1:8] into equal-sized buckets. Rounding up.
src/base/remote_gdb.cc:418: warn: Sockets disabled, not accepting gdb connections
gem5 Simulator System.  https://www.gem5.org
gem5 is copyrighted software; use the --copyright option for details.

gem5 version 25.1.0.0
gem5 compiled Apr  9 2026 07:51:36
gem5 started Apr 18 2026 01:36:53
gem5 executing on shafin-HP-Laptop-14s-fq1786, pid 638391
command line: ./gem5/build/ALL/gem5.opt rw_ratio_bench.py --binary-path rw_ratio_bench-ARM --isa ARM --sq-size 16 --lq-size 16 --write-ratio 50

info: Standard input is not a terminal, disabling listeners.
Parameters:
  binary-path: rw_ratio_bench-ARM
  write-ratio: 50
  isa: ARM
  rob-size: 512
  lq-size: 16
  sq-size: 16
Running the simulation
Using O3 cpu
src/arch/arm/insts/pseudo.cc:174: warn: 	instruction 'bti' unimplemented
src/sim/syscall_emul.cc:86: warn: ignoring syscall set_robust_list(...)
src/sim/syscall_emul.cc:97: warn: ignoring syscall rseq(...)
      (further warnings will be suppressed)
src/sim/mem_state.cc:443: info: Increasing stack size by one page.
src/sim/syscall_emul.hh:1127: warn: readlink() called on '/proc/self/exe' may yield unexpected results in various settings.
      Returning '/media/shafin/secondary/CXL-consistency-tax/rw_ratio_bench-ARM'
src/sim/syscall_emul.cc:86: warn: ignoring syscall mprotect(...)
src/arch/arm/insts/pseudo.cc:174: warn: 	instruction 'unallocated_hint' unimplemented
src/arch/arm/insts/pseudo.cc:174: warn: 	instruction 'bti' unimplemented
src/sim/syscall_emul.hh:816: warn: Unsupported ioctl call (return ENOTTY): ioctl(1, 0x802c542a, ...) @ (0x442c5c=>0x442c60).(0=>1)
elements=1000000 ops=100000 write_ratio=50 seed=1
elapsed=0.003575 s
read_ops=49841 (13.942 Mop/s)
write_ops=50159 (14.031 Mop/s)
total_ops=100000 (27.972 Mop/s)
read_sum=1984160668027299065
write_sum=15127924039229570755
All simulation events were successful.
Done with the simulation after 49.33 seconds of wall clock time!
Running with ISA=ARM, SQ/LQ size=32, write-ratio=50
Global frequency set at 1000000000000 ticks per second
warn: rounding error > tolerance
    29.103830 rounded to 29
warn: rounding error > tolerance
    29.103830 rounded to 29
warn: No dot file generated. Please install pydot to generate the dot file and pdf.
warn: rounding error > tolerance
    29.103830 rounded to 29
src/base/statistics.hh:279: warn: One of the stats is a legacy stat. Legacy stat is a stat that does not belong to any statistics::Group. Legacy stat is deprecated.
src/base/stats/storage.hh:278: warn: Bucket size (4) does not divide range [1:32] into equal-sized buckets. Rounding up.
src/base/stats/storage.hh:278: warn: Bucket size (4) does not divide range [1:8] into equal-sized buckets. Rounding up.
src/base/remote_gdb.cc:418: warn: Sockets disabled, not accepting gdb connections
gem5 Simulator System.  https://www.gem5.org
gem5 is copyrighted software; use the --copyright option for details.

gem5 version 25.1.0.0
gem5 compiled Apr  9 2026 07:51:36
gem5 started Apr 18 2026 01:37:43
gem5 executing on shafin-HP-Laptop-14s-fq1786, pid 638803
command line: ./gem5/build/ALL/gem5.opt rw_ratio_bench.py --binary-path rw_ratio_bench-ARM --isa ARM --sq-size 32 --lq-size 32 --write-ratio 50

info: Standard input is not a terminal, disabling listeners.
Parameters:
  binary-path: rw_ratio_bench-ARM
  write-ratio: 50
  isa: ARM
  rob-size: 512
  lq-size: 32
  sq-size: 32
Running the simulation
Using O3 cpu
src/arch/arm/insts/pseudo.cc:174: warn: 	instruction 'bti' unimplemented
src/sim/syscall_emul.cc:86: warn: ignoring syscall set_robust_list(...)
src/sim/syscall_emul.cc:97: warn: ignoring syscall rseq(...)
      (further warnings will be suppressed)
src/sim/mem_state.cc:443: info: Increasing stack size by one page.
src/sim/syscall_emul.hh:1127: warn: readlink() called on '/proc/self/exe' may yield unexpected results in various settings.
      Returning '/media/shafin/secondary/CXL-consistency-tax/rw_ratio_bench-ARM'
src/sim/syscall_emul.cc:86: warn: ignoring syscall mprotect(...)
src/arch/arm/insts/pseudo.cc:174: warn: 	instruction 'unallocated_hint' unimplemented
src/arch/arm/insts/pseudo.cc:174: warn: 	instruction 'bti' unimplemented
src/sim/syscall_emul.hh:816: warn: Unsupported ioctl call (return ENOTTY): ioctl(1, 0x802c542a, ...) @ (0x442c5c=>0x442c60).(0=>1)
elements=1000000 ops=100000 write_ratio=50 seed=1
elapsed=0.002714 s
read_ops=49841 (18.364 Mop/s)
write_ops=50159 (18.481 Mop/s)
total_ops=100000 (36.844 Mop/s)
read_sum=1984160668027299065
write_sum=15127924039229570755
All simulation events were successful.
Done with the simulation after 42.47 seconds of wall clock time!
Running with ISA=ARM, SQ/LQ size=64, write-ratio=50
Global frequency set at 1000000000000 ticks per second
warn: rounding error > tolerance
    29.103830 rounded to 29
warn: rounding error > tolerance
    29.103830 rounded to 29
warn: No dot file generated. Please install pydot to generate the dot file and pdf.
warn: rounding error > tolerance
    29.103830 rounded to 29
src/base/statistics.hh:279: warn: One of the stats is a legacy stat. Legacy stat is a stat that does not belong to any statistics::Group. Legacy stat is deprecated.
src/base/stats/storage.hh:278: warn: Bucket size (4) does not divide range [1:32] into equal-sized buckets. Rounding up.
src/base/stats/storage.hh:278: warn: Bucket size (4) does not divide range [1:8] into equal-sized buckets. Rounding up.
src/base/remote_gdb.cc:418: warn: Sockets disabled, not accepting gdb connections
gem5 Simulator System.  https://www.gem5.org
gem5 is copyrighted software; use the --copyright option for details.

gem5 version 25.1.0.0
gem5 compiled Apr  9 2026 07:51:36
gem5 started Apr 18 2026 01:38:27
gem5 executing on shafin-HP-Laptop-14s-fq1786, pid 639098
command line: ./gem5/build/ALL/gem5.opt rw_ratio_bench.py --binary-path rw_ratio_bench-ARM --isa ARM --sq-size 64 --lq-size 64 --write-ratio 50

info: Standard input is not a terminal, disabling listeners.
Parameters:
  binary-path: rw_ratio_bench-ARM
  write-ratio: 50
  isa: ARM
  rob-size: 512
  lq-size: 64
  sq-size: 64
Running the simulation
Using O3 cpu
src/arch/arm/insts/pseudo.cc:174: warn: 	instruction 'bti' unimplemented
src/sim/syscall_emul.cc:86: warn: ignoring syscall set_robust_list(...)
src/sim/syscall_emul.cc:97: warn: ignoring syscall rseq(...)
      (further warnings will be suppressed)
src/sim/mem_state.cc:443: info: Increasing stack size by one page.
src/sim/syscall_emul.hh:1127: warn: readlink() called on '/proc/self/exe' may yield unexpected results in various settings.
      Returning '/media/shafin/secondary/CXL-consistency-tax/rw_ratio_bench-ARM'
src/sim/syscall_emul.cc:86: warn: ignoring syscall mprotect(...)
src/arch/arm/insts/pseudo.cc:174: warn: 	instruction 'unallocated_hint' unimplemented
src/arch/arm/insts/pseudo.cc:174: warn: 	instruction 'bti' unimplemented
src/sim/syscall_emul.hh:816: warn: Unsupported ioctl call (return ENOTTY): ioctl(1, 0x802c542a, ...) @ (0x442c5c=>0x442c60).(0=>1)
elements=1000000 ops=100000 write_ratio=50 seed=1
elapsed=0.002714 s
read_ops=49841 (18.364 Mop/s)
write_ops=50159 (18.481 Mop/s)
total_ops=100000 (36.844 Mop/s)
read_sum=1984160668027299065
write_sum=15127924039229570755
All simulation events were successful.
Done with the simulation after 40.86 seconds of wall clock time!
Running with ISA=ARM, SQ/LQ size=128, write-ratio=50
Global frequency set at 1000000000000 ticks per second
warn: rounding error > tolerance
    29.103830 rounded to 29
warn: rounding error > tolerance
    29.103830 rounded to 29
warn: No dot file generated. Please install pydot to generate the dot file and pdf.
warn: rounding error > tolerance
    29.103830 rounded to 29
src/base/statistics.hh:279: warn: One of the stats is a legacy stat. Legacy stat is a stat that does not belong to any statistics::Group. Legacy stat is deprecated.
src/base/stats/storage.hh:278: warn: Bucket size (4) does not divide range [1:32] into equal-sized buckets. Rounding up.
src/base/stats/storage.hh:278: warn: Bucket size (4) does not divide range [1:8] into equal-sized buckets. Rounding up.
src/base/remote_gdb.cc:418: warn: Sockets disabled, not accepting gdb connections
gem5 Simulator System.  https://www.gem5.org
gem5 is copyrighted software; use the --copyright option for details.

gem5 version 25.1.0.0
gem5 compiled Apr  9 2026 07:51:36
gem5 started Apr 18 2026 01:39:09
gem5 executing on shafin-HP-Laptop-14s-fq1786, pid 639591
command line: ./gem5/build/ALL/gem5.opt rw_ratio_bench.py --binary-path rw_ratio_bench-ARM --isa ARM --sq-size 128 --lq-size 128 --write-ratio 50

info: Standard input is not a terminal, disabling listeners.
Parameters:
  binary-path: rw_ratio_bench-ARM
  write-ratio: 50
  isa: ARM
  rob-size: 512
  lq-size: 128
  sq-size: 128
Running the simulation
Using O3 cpu
src/arch/arm/insts/pseudo.cc:174: warn: 	instruction 'bti' unimplemented
src/sim/syscall_emul.cc:86: warn: ignoring syscall set_robust_list(...)
src/sim/syscall_emul.cc:97: warn: ignoring syscall rseq(...)
      (further warnings will be suppressed)
src/sim/mem_state.cc:443: info: Increasing stack size by one page.
src/sim/syscall_emul.hh:1127: warn: readlink() called on '/proc/self/exe' may yield unexpected results in various settings.
      Returning '/media/shafin/secondary/CXL-consistency-tax/rw_ratio_bench-ARM'
src/sim/syscall_emul.cc:86: warn: ignoring syscall mprotect(...)
src/arch/arm/insts/pseudo.cc:174: warn: 	instruction 'unallocated_hint' unimplemented
src/arch/arm/insts/pseudo.cc:174: warn: 	instruction 'bti' unimplemented
src/sim/syscall_emul.hh:816: warn: Unsupported ioctl call (return ENOTTY): ioctl(1, 0x802c542a, ...) @ (0x442c5c=>0x442c60).(0=>1)
elements=1000000 ops=100000 write_ratio=50 seed=1
elapsed=0.002714 s
read_ops=49841 (18.364 Mop/s)
write_ops=50159 (18.481 Mop/s)
total_ops=100000 (36.844 Mop/s)
read_sum=1984160668027299065
write_sum=15127924039229570755
All simulation events were successful.
Done with the simulation after 37.32 seconds of wall clock time!
Running with ISA=X86, SQ/LQ size=8, write-ratio=50
Global frequency set at 1000000000000 ticks per second
warn: rounding error > tolerance
    29.103830 rounded to 29
warn: rounding error > tolerance
    29.103830 rounded to 29
warn: No dot file generated. Please install pydot to generate the dot file and pdf.
warn: rounding error > tolerance
    29.103830 rounded to 29
src/base/statistics.hh:279: warn: One of the stats is a legacy stat. Legacy stat is a stat that does not belong to any statistics::Group. Legacy stat is deprecated.
src/base/stats/storage.hh:278: warn: Bucket size (4) does not divide range [1:32] into equal-sized buckets. Rounding up.
src/base/stats/storage.hh:278: warn: Bucket size (4) does not divide range [1:8] into equal-sized buckets. Rounding up.
src/base/remote_gdb.cc:418: warn: Sockets disabled, not accepting gdb connections
gem5 Simulator System.  https://www.gem5.org
gem5 is copyrighted software; use the --copyright option for details.

gem5 version 25.1.0.0
gem5 compiled Apr  9 2026 07:51:36
gem5 started Apr 18 2026 01:39:47
gem5 executing on shafin-HP-Laptop-14s-fq1786, pid 639840
command line: ./gem5/build/ALL/gem5.opt rw_ratio_bench.py --binary-path rw_ratio_bench-X86 --isa X86 --sq-size 8 --lq-size 8 --write-ratio 50

info: Standard input is not a terminal, disabling listeners.
Parameters:
  binary-path: rw_ratio_bench-X86
  write-ratio: 50
  isa: X86
  rob-size: 512
  lq-size: 8
  sq-size: 8
Running the simulation
Using O3 cpu
src/sim/syscall_emul.cc:86: warn: ignoring syscall set_robust_list(...)
src/sim/syscall_emul.cc:86: warn: ignoring syscall rseq(...)
src/sim/mem_state.cc:443: info: Increasing stack size by one page.
src/sim/syscall_emul.hh:1127: warn: readlink() called on '/proc/self/exe' may yield unexpected results in various settings.
      Returning '/media/shafin/secondary/CXL-consistency-tax/rw_ratio_bench-X86'
src/sim/syscall_emul.cc:86: warn: ignoring syscall mprotect(...)
elements=1000000 ops=100000 write_ratio=50 seed=1
elapsed=0.010071 s
read_ops=49841 (4.949 Mop/s)
write_ops=50159 (4.981 Mop/s)
total_ops=100000 (9.930 Mop/s)
read_sum=1984160668027299065
write_sum=15127924039229570755
All simulation events were successful.
Done with the simulation after 98.87 seconds of wall clock time!
Running with ISA=X86, SQ/LQ size=16, write-ratio=50
Global frequency set at 1000000000000 ticks per second
warn: rounding error > tolerance
    29.103830 rounded to 29
warn: rounding error > tolerance
    29.103830 rounded to 29
warn: No dot file generated. Please install pydot to generate the dot file and pdf.
warn: rounding error > tolerance
    29.103830 rounded to 29
src/base/statistics.hh:279: warn: One of the stats is a legacy stat. Legacy stat is a stat that does not belong to any statistics::Group. Legacy stat is deprecated.
src/base/stats/storage.hh:278: warn: Bucket size (4) does not divide range [1:32] into equal-sized buckets. Rounding up.
src/base/stats/storage.hh:278: warn: Bucket size (4) does not divide range [1:8] into equal-sized buckets. Rounding up.
src/base/remote_gdb.cc:418: warn: Sockets disabled, not accepting gdb connections
gem5 Simulator System.  https://www.gem5.org
gem5 is copyrighted software; use the --copyright option for details.

gem5 version 25.1.0.0
gem5 compiled Apr  9 2026 07:51:36
gem5 started Apr 18 2026 01:41:26
gem5 executing on shafin-HP-Laptop-14s-fq1786, pid 640542
command line: ./gem5/build/ALL/gem5.opt rw_ratio_bench.py --binary-path rw_ratio_bench-X86 --isa X86 --sq-size 16 --lq-size 16 --write-ratio 50

info: Standard input is not a terminal, disabling listeners.
Parameters:
  binary-path: rw_ratio_bench-X86
  write-ratio: 50
  isa: X86
  rob-size: 512
  lq-size: 16
  sq-size: 16
Running the simulation
Using O3 cpu
src/sim/syscall_emul.cc:86: warn: ignoring syscall set_robust_list(...)
src/sim/syscall_emul.cc:86: warn: ignoring syscall rseq(...)
src/sim/mem_state.cc:443: info: Increasing stack size by one page.
src/sim/syscall_emul.hh:1127: warn: readlink() called on '/proc/self/exe' may yield unexpected results in various settings.
      Returning '/media/shafin/secondary/CXL-consistency-tax/rw_ratio_bench-X86'
src/sim/syscall_emul.cc:86: warn: ignoring syscall mprotect(...)
elements=1000000 ops=100000 write_ratio=50 seed=1
elapsed=0.009766 s
read_ops=49841 (5.103 Mop/s)
write_ops=50159 (5.136 Mop/s)
total_ops=100000 (10.239 Mop/s)
read_sum=1984160668027299065
write_sum=15127924039229570755
All simulation events were successful.
Done with the simulation after 100.62 seconds of wall clock time!
Running with ISA=X86, SQ/LQ size=32, write-ratio=50
Global frequency set at 1000000000000 ticks per second
warn: rounding error > tolerance
    29.103830 rounded to 29
warn: rounding error > tolerance
    29.103830 rounded to 29
warn: No dot file generated. Please install pydot to generate the dot file and pdf.
warn: rounding error > tolerance
    29.103830 rounded to 29
src/base/statistics.hh:279: warn: One of the stats is a legacy stat. Legacy stat is a stat that does not belong to any statistics::Group. Legacy stat is deprecated.
src/base/stats/storage.hh:278: warn: Bucket size (4) does not divide range [1:32] into equal-sized buckets. Rounding up.
src/base/stats/storage.hh:278: warn: Bucket size (4) does not divide range [1:8] into equal-sized buckets. Rounding up.
src/base/remote_gdb.cc:418: warn: Sockets disabled, not accepting gdb connections
gem5 Simulator System.  https://www.gem5.org
gem5 is copyrighted software; use the --copyright option for details.

gem5 version 25.1.0.0
gem5 compiled Apr  9 2026 07:51:36
gem5 started Apr 18 2026 01:43:08
gem5 executing on shafin-HP-Laptop-14s-fq1786, pid 641591
command line: ./gem5/build/ALL/gem5.opt rw_ratio_bench.py --binary-path rw_ratio_bench-X86 --isa X86 --sq-size 32 --lq-size 32 --write-ratio 50

info: Standard input is not a terminal, disabling listeners.
Parameters:
  binary-path: rw_ratio_bench-X86
  write-ratio: 50
  isa: X86
  rob-size: 512
  lq-size: 32
  sq-size: 32
Running the simulation
Using O3 cpu
src/sim/syscall_emul.cc:86: warn: ignoring syscall set_robust_list(...)
src/sim/syscall_emul.cc:86: warn: ignoring syscall rseq(...)
src/sim/mem_state.cc:443: info: Increasing stack size by one page.
src/sim/syscall_emul.hh:1127: warn: readlink() called on '/proc/self/exe' may yield unexpected results in various settings.
      Returning '/media/shafin/secondary/CXL-consistency-tax/rw_ratio_bench-X86'
src/sim/syscall_emul.cc:86: warn: ignoring syscall mprotect(...)
elements=1000000 ops=100000 write_ratio=50 seed=1
elapsed=0.009665 s
read_ops=49841 (5.157 Mop/s)
write_ops=50159 (5.190 Mop/s)
total_ops=100000 (10.346 Mop/s)
read_sum=1984160668027299065
write_sum=15127924039229570755
All simulation events were successful.
Done with the simulation after 96.97 seconds of wall clock time!
Running with ISA=X86, SQ/LQ size=64, write-ratio=50
Global frequency set at 1000000000000 ticks per second
warn: rounding error > tolerance
    29.103830 rounded to 29
warn: rounding error > tolerance
    29.103830 rounded to 29
warn: No dot file generated. Please install pydot to generate the dot file and pdf.
warn: rounding error > tolerance
    29.103830 rounded to 29
src/base/statistics.hh:279: warn: One of the stats is a legacy stat. Legacy stat is a stat that does not belong to any statistics::Group. Legacy stat is deprecated.
src/base/stats/storage.hh:278: warn: Bucket size (4) does not divide range [1:32] into equal-sized buckets. Rounding up.
src/base/stats/storage.hh:278: warn: Bucket size (4) does not divide range [1:8] into equal-sized buckets. Rounding up.
src/base/remote_gdb.cc:418: warn: Sockets disabled, not accepting gdb connections
gem5 Simulator System.  https://www.gem5.org
gem5 is copyrighted software; use the --copyright option for details.

gem5 version 25.1.0.0
gem5 compiled Apr  9 2026 07:51:36
gem5 started Apr 18 2026 01:44:46
gem5 executing on shafin-HP-Laptop-14s-fq1786, pid 642390
command line: ./gem5/build/ALL/gem5.opt rw_ratio_bench.py --binary-path rw_ratio_bench-X86 --isa X86 --sq-size 64 --lq-size 64 --write-ratio 50

info: Standard input is not a terminal, disabling listeners.
Parameters:
  binary-path: rw_ratio_bench-X86
  write-ratio: 50
  isa: X86
  rob-size: 512
  lq-size: 64
  sq-size: 64
Running the simulation
Using O3 cpu
src/sim/syscall_emul.cc:86: warn: ignoring syscall set_robust_list(...)
src/sim/syscall_emul.cc:86: warn: ignoring syscall rseq(...)
src/sim/mem_state.cc:443: info: Increasing stack size by one page.
src/sim/syscall_emul.hh:1127: warn: readlink() called on '/proc/self/exe' may yield unexpected results in various settings.
      Returning '/media/shafin/secondary/CXL-consistency-tax/rw_ratio_bench-X86'
src/sim/syscall_emul.cc:86: warn: ignoring syscall mprotect(...)
elements=1000000 ops=100000 write_ratio=50 seed=1
elapsed=0.009646 s
read_ops=49841 (5.167 Mop/s)
write_ops=50159 (5.200 Mop/s)
total_ops=100000 (10.367 Mop/s)
read_sum=1984160668027299065
write_sum=15127924039229570755
All simulation events were successful.
Done with the simulation after 99.07 seconds of wall clock time!
Running with ISA=X86, SQ/LQ size=128, write-ratio=50
Global frequency set at 1000000000000 ticks per second
warn: rounding error > tolerance
    29.103830 rounded to 29
warn: rounding error > tolerance
    29.103830 rounded to 29
warn: No dot file generated. Please install pydot to generate the dot file and pdf.
warn: rounding error > tolerance
    29.103830 rounded to 29
src/base/statistics.hh:279: warn: One of the stats is a legacy stat. Legacy stat is a stat that does not belong to any statistics::Group. Legacy stat is deprecated.
src/base/stats/storage.hh:278: warn: Bucket size (4) does not divide range [1:32] into equal-sized buckets. Rounding up.
src/base/stats/storage.hh:278: warn: Bucket size (4) does not divide range [1:8] into equal-sized buckets. Rounding up.
src/base/remote_gdb.cc:418: warn: Sockets disabled, not accepting gdb connections
gem5 Simulator System.  https://www.gem5.org
gem5 is copyrighted software; use the --copyright option for details.

gem5 version 25.1.0.0
gem5 compiled Apr  9 2026 07:51:36
gem5 started Apr 18 2026 01:46:26
gem5 executing on shafin-HP-Laptop-14s-fq1786, pid 643111
command line: ./gem5/build/ALL/gem5.opt rw_ratio_bench.py --binary-path rw_ratio_bench-X86 --isa X86 --sq-size 128 --lq-size 128 --write-ratio 50

info: Standard input is not a terminal, disabling listeners.
Parameters:
  binary-path: rw_ratio_bench-X86
  write-ratio: 50
  isa: X86
  rob-size: 512
  lq-size: 128
  sq-size: 128
Running the simulation
Using O3 cpu
src/sim/syscall_emul.cc:86: warn: ignoring syscall set_robust_list(...)
src/sim/syscall_emul.cc:86: warn: ignoring syscall rseq(...)
src/sim/mem_state.cc:443: info: Increasing stack size by one page.
src/sim/syscall_emul.hh:1127: warn: readlink() called on '/proc/self/exe' may yield unexpected results in various settings.
      Returning '/media/shafin/secondary/CXL-consistency-tax/rw_ratio_bench-X86'
src/sim/syscall_emul.cc:86: warn: ignoring syscall mprotect(...)
elements=1000000 ops=100000 write_ratio=50 seed=1
elapsed=0.009646 s
read_ops=49841 (5.167 Mop/s)
write_ops=50159 (5.200 Mop/s)
total_ops=100000 (10.367 Mop/s)
read_sum=1984160668027299065
write_sum=15127924039229570755
All simulation events were successful.
Done with the simulation after 101.66 seconds of wall clock time!
Running with ISA=ARM, SQ/LQ size=8, write-ratio=25
Global frequency set at 1000000000000 ticks per second
warn: rounding error > tolerance
    29.103830 rounded to 29
warn: rounding error > tolerance
    29.103830 rounded to 29
warn: No dot file generated. Please install pydot to generate the dot file and pdf.
warn: rounding error > tolerance
    29.103830 rounded to 29
src/base/statistics.hh:279: warn: One of the stats is a legacy stat. Legacy stat is a stat that does not belong to any statistics::Group. Legacy stat is deprecated.
src/base/stats/storage.hh:278: warn: Bucket size (4) does not divide range [1:32] into equal-sized buckets. Rounding up.
src/base/stats/storage.hh:278: warn: Bucket size (4) does not divide range [1:8] into equal-sized buckets. Rounding up.
src/base/remote_gdb.cc:418: warn: Sockets disabled, not accepting gdb connections
gem5 Simulator System.  https://www.gem5.org
gem5 is copyrighted software; use the --copyright option for details.

gem5 version 25.1.0.0
gem5 compiled Apr  9 2026 07:51:36
gem5 started Apr 18 2026 01:48:08
gem5 executing on shafin-HP-Laptop-14s-fq1786, pid 644322
command line: ./gem5/build/ALL/gem5.opt rw_ratio_bench.py --binary-path rw_ratio_bench-ARM --isa ARM --sq-size 8 --lq-size 8 --write-ratio 25

info: Standard input is not a terminal, disabling listeners.
Parameters:
  binary-path: rw_ratio_bench-ARM
  write-ratio: 25
  isa: ARM
  rob-size: 512
  lq-size: 8
  sq-size: 8
Running the simulation
Using O3 cpu
src/arch/arm/insts/pseudo.cc:174: warn: 	instruction 'bti' unimplemented
src/sim/syscall_emul.cc:86: warn: ignoring syscall set_robust_list(...)
src/sim/syscall_emul.cc:97: warn: ignoring syscall rseq(...)
      (further warnings will be suppressed)
src/sim/mem_state.cc:443: info: Increasing stack size by one page.
src/sim/syscall_emul.hh:1127: warn: readlink() called on '/proc/self/exe' may yield unexpected results in various settings.
      Returning '/media/shafin/secondary/CXL-consistency-tax/rw_ratio_bench-ARM'
src/sim/syscall_emul.cc:86: warn: ignoring syscall mprotect(...)
src/arch/arm/insts/pseudo.cc:174: warn: 	instruction 'unallocated_hint' unimplemented
src/arch/arm/insts/pseudo.cc:174: warn: 	instruction 'bti' unimplemented
src/sim/syscall_emul.hh:816: warn: Unsupported ioctl call (return ENOTTY): ioctl(1, 0x802c542a, ...) @ (0x442c5c=>0x442c60).(0=>1)
elements=1000000 ops=100000 write_ratio=25 seed=1
elapsed=0.007684 s
read_ops=74821 (9.738 Mop/s)
write_ops=25179 (3.277 Mop/s)
total_ops=100000 (13.015 Mop/s)
read_sum=11542828953556803800
write_sum=13284600926069978378
All simulation events were successful.
Done with the simulation after 66.16 seconds of wall clock time!
Running with ISA=ARM, SQ/LQ size=16, write-ratio=25
Global frequency set at 1000000000000 ticks per second
warn: rounding error > tolerance
    29.103830 rounded to 29
warn: rounding error > tolerance
    29.103830 rounded to 29
warn: No dot file generated. Please install pydot to generate the dot file and pdf.
warn: rounding error > tolerance
    29.103830 rounded to 29
src/base/statistics.hh:279: warn: One of the stats is a legacy stat. Legacy stat is a stat that does not belong to any statistics::Group. Legacy stat is deprecated.
src/base/stats/storage.hh:278: warn: Bucket size (4) does not divide range [1:32] into equal-sized buckets. Rounding up.
src/base/stats/storage.hh:278: warn: Bucket size (4) does not divide range [1:8] into equal-sized buckets. Rounding up.
src/base/remote_gdb.cc:418: warn: Sockets disabled, not accepting gdb connections
gem5 Simulator System.  https://www.gem5.org
gem5 is copyrighted software; use the --copyright option for details.

gem5 version 25.1.0.0
gem5 compiled Apr  9 2026 07:51:36
gem5 started Apr 18 2026 01:49:15
gem5 executing on shafin-HP-Laptop-14s-fq1786, pid 644913
command line: ./gem5/build/ALL/gem5.opt rw_ratio_bench.py --binary-path rw_ratio_bench-ARM --isa ARM --sq-size 16 --lq-size 16 --write-ratio 25

info: Standard input is not a terminal, disabling listeners.
Parameters:
  binary-path: rw_ratio_bench-ARM
  write-ratio: 25
  isa: ARM
  rob-size: 512
  lq-size: 16
  sq-size: 16
Running the simulation
Using O3 cpu
src/arch/arm/insts/pseudo.cc:174: warn: 	instruction 'bti' unimplemented
src/sim/syscall_emul.cc:86: warn: ignoring syscall set_robust_list(...)
src/sim/syscall_emul.cc:97: warn: ignoring syscall rseq(...)
      (further warnings will be suppressed)
src/sim/mem_state.cc:443: info: Increasing stack size by one page.
src/sim/syscall_emul.hh:1127: warn: readlink() called on '/proc/self/exe' may yield unexpected results in various settings.
      Returning '/media/shafin/secondary/CXL-consistency-tax/rw_ratio_bench-ARM'
src/sim/syscall_emul.cc:86: warn: ignoring syscall mprotect(...)
src/arch/arm/insts/pseudo.cc:174: warn: 	instruction 'unallocated_hint' unimplemented
src/arch/arm/insts/pseudo.cc:174: warn: 	instruction 'bti' unimplemented
src/sim/syscall_emul.hh:816: warn: Unsupported ioctl call (return ENOTTY): ioctl(1, 0x802c542a, ...) @ (0x442c5c=>0x442c60).(0=>1)
elements=1000000 ops=100000 write_ratio=25 seed=1
elapsed=0.004095 s
read_ops=74821 (18.271 Mop/s)
write_ops=25179 (6.148 Mop/s)
total_ops=100000 (24.419 Mop/s)
read_sum=11542828953556803800
write_sum=13284600926069978378
All simulation events were successful.
Done with the simulation after 48.81 seconds of wall clock time!
Running with ISA=ARM, SQ/LQ size=32, write-ratio=25
Global frequency set at 1000000000000 ticks per second
warn: rounding error > tolerance
    29.103830 rounded to 29
warn: rounding error > tolerance
    29.103830 rounded to 29
warn: No dot file generated. Please install pydot to generate the dot file and pdf.
warn: rounding error > tolerance
    29.103830 rounded to 29
src/base/statistics.hh:279: warn: One of the stats is a legacy stat. Legacy stat is a stat that does not belong to any statistics::Group. Legacy stat is deprecated.
src/base/stats/storage.hh:278: warn: Bucket size (4) does not divide range [1:32] into equal-sized buckets. Rounding up.
src/base/stats/storage.hh:278: warn: Bucket size (4) does not divide range [1:8] into equal-sized buckets. Rounding up.
src/base/remote_gdb.cc:418: warn: Sockets disabled, not accepting gdb connections
gem5 Simulator System.  https://www.gem5.org
gem5 is copyrighted software; use the --copyright option for details.

gem5 version 25.1.0.0
gem5 compiled Apr  9 2026 07:51:36
gem5 started Apr 18 2026 01:50:05
gem5 executing on shafin-HP-Laptop-14s-fq1786, pid 645357
command line: ./gem5/build/ALL/gem5.opt rw_ratio_bench.py --binary-path rw_ratio_bench-ARM --isa ARM --sq-size 32 --lq-size 32 --write-ratio 25

info: Standard input is not a terminal, disabling listeners.
Parameters:
  binary-path: rw_ratio_bench-ARM
  write-ratio: 25
  isa: ARM
  rob-size: 512
  lq-size: 32
  sq-size: 32
Running the simulation
Using O3 cpu
src/arch/arm/insts/pseudo.cc:174: warn: 	instruction 'bti' unimplemented
src/sim/syscall_emul.cc:86: warn: ignoring syscall set_robust_list(...)
src/sim/syscall_emul.cc:97: warn: ignoring syscall rseq(...)
      (further warnings will be suppressed)
src/sim/mem_state.cc:443: info: Increasing stack size by one page.
src/sim/syscall_emul.hh:1127: warn: readlink() called on '/proc/self/exe' may yield unexpected results in various settings.
      Returning '/media/shafin/secondary/CXL-consistency-tax/rw_ratio_bench-ARM'
src/sim/syscall_emul.cc:86: warn: ignoring syscall mprotect(...)
src/arch/arm/insts/pseudo.cc:174: warn: 	instruction 'unallocated_hint' unimplemented
src/arch/arm/insts/pseudo.cc:174: warn: 	instruction 'bti' unimplemented
src/sim/syscall_emul.hh:816: warn: Unsupported ioctl call (return ENOTTY): ioctl(1, 0x802c542a, ...) @ (0x442c5c=>0x442c60).(0=>1)
elements=1000000 ops=100000 write_ratio=25 seed=1
elapsed=0.002677 s
read_ops=74821 (27.952 Mop/s)
write_ops=25179 (9.406 Mop/s)
total_ops=100000 (37.358 Mop/s)
read_sum=11542828953556803800
write_sum=13284600926069978378
All simulation events were successful.
Done with the simulation after 39.75 seconds of wall clock time!
Running with ISA=ARM, SQ/LQ size=64, write-ratio=25
Global frequency set at 1000000000000 ticks per second
warn: rounding error > tolerance
    29.103830 rounded to 29
warn: rounding error > tolerance
    29.103830 rounded to 29
warn: No dot file generated. Please install pydot to generate the dot file and pdf.
warn: rounding error > tolerance
    29.103830 rounded to 29
src/base/statistics.hh:279: warn: One of the stats is a legacy stat. Legacy stat is a stat that does not belong to any statistics::Group. Legacy stat is deprecated.
src/base/stats/storage.hh:278: warn: Bucket size (4) does not divide range [1:32] into equal-sized buckets. Rounding up.
src/base/stats/storage.hh:278: warn: Bucket size (4) does not divide range [1:8] into equal-sized buckets. Rounding up.
src/base/remote_gdb.cc:418: warn: Sockets disabled, not accepting gdb connections
gem5 Simulator System.  https://www.gem5.org
gem5 is copyrighted software; use the --copyright option for details.

gem5 version 25.1.0.0
gem5 compiled Apr  9 2026 07:51:36
gem5 started Apr 18 2026 01:50:45
gem5 executing on shafin-HP-Laptop-14s-fq1786, pid 645866
command line: ./gem5/build/ALL/gem5.opt rw_ratio_bench.py --binary-path rw_ratio_bench-ARM --isa ARM --sq-size 64 --lq-size 64 --write-ratio 25

info: Standard input is not a terminal, disabling listeners.
Parameters:
  binary-path: rw_ratio_bench-ARM
  write-ratio: 25
  isa: ARM
  rob-size: 512
  lq-size: 64
  sq-size: 64
Running the simulation
Using O3 cpu
src/arch/arm/insts/pseudo.cc:174: warn: 	instruction 'bti' unimplemented
src/sim/syscall_emul.cc:86: warn: ignoring syscall set_robust_list(...)
src/sim/syscall_emul.cc:97: warn: ignoring syscall rseq(...)
      (further warnings will be suppressed)
src/sim/mem_state.cc:443: info: Increasing stack size by one page.
src/sim/syscall_emul.hh:1127: warn: readlink() called on '/proc/self/exe' may yield unexpected results in various settings.
      Returning '/media/shafin/secondary/CXL-consistency-tax/rw_ratio_bench-ARM'
src/sim/syscall_emul.cc:86: warn: ignoring syscall mprotect(...)
src/arch/arm/insts/pseudo.cc:174: warn: 	instruction 'unallocated_hint' unimplemented
src/arch/arm/insts/pseudo.cc:174: warn: 	instruction 'bti' unimplemented
src/sim/syscall_emul.hh:816: warn: Unsupported ioctl call (return ENOTTY): ioctl(1, 0x802c542a, ...) @ (0x442c5c=>0x442c60).(0=>1)
elements=1000000 ops=100000 write_ratio=25 seed=1
elapsed=0.002677 s
read_ops=74821 (27.952 Mop/s)
write_ops=25179 (9.406 Mop/s)
total_ops=100000 (37.358 Mop/s)
read_sum=11542828953556803800
write_sum=13284600926069978378
All simulation events were successful.
Done with the simulation after 39.37 seconds of wall clock time!
Running with ISA=ARM, SQ/LQ size=128, write-ratio=25
Global frequency set at 1000000000000 ticks per second
warn: rounding error > tolerance
    29.103830 rounded to 29
warn: rounding error > tolerance
    29.103830 rounded to 29
warn: No dot file generated. Please install pydot to generate the dot file and pdf.
warn: rounding error > tolerance
    29.103830 rounded to 29
src/base/statistics.hh:279: warn: One of the stats is a legacy stat. Legacy stat is a stat that does not belong to any statistics::Group. Legacy stat is deprecated.
src/base/stats/storage.hh:278: warn: Bucket size (4) does not divide range [1:32] into equal-sized buckets. Rounding up.
src/base/stats/storage.hh:278: warn: Bucket size (4) does not divide range [1:8] into equal-sized buckets. Rounding up.
src/base/remote_gdb.cc:418: warn: Sockets disabled, not accepting gdb connections
gem5 Simulator System.  https://www.gem5.org
gem5 is copyrighted software; use the --copyright option for details.

gem5 version 25.1.0.0
gem5 compiled Apr  9 2026 07:51:36
gem5 started Apr 18 2026 01:51:25
gem5 executing on shafin-HP-Laptop-14s-fq1786, pid 646247
command line: ./gem5/build/ALL/gem5.opt rw_ratio_bench.py --binary-path rw_ratio_bench-ARM --isa ARM --sq-size 128 --lq-size 128 --write-ratio 25

info: Standard input is not a terminal, disabling listeners.
Parameters:
  binary-path: rw_ratio_bench-ARM
  write-ratio: 25
  isa: ARM
  rob-size: 512
  lq-size: 128
  sq-size: 128
Running the simulation
Using O3 cpu
src/arch/arm/insts/pseudo.cc:174: warn: 	instruction 'bti' unimplemented
src/sim/syscall_emul.cc:86: warn: ignoring syscall set_robust_list(...)
src/sim/syscall_emul.cc:97: warn: ignoring syscall rseq(...)
      (further warnings will be suppressed)
src/sim/mem_state.cc:443: info: Increasing stack size by one page.
src/sim/syscall_emul.hh:1127: warn: readlink() called on '/proc/self/exe' may yield unexpected results in various settings.
      Returning '/media/shafin/secondary/CXL-consistency-tax/rw_ratio_bench-ARM'
src/sim/syscall_emul.cc:86: warn: ignoring syscall mprotect(...)
src/arch/arm/insts/pseudo.cc:174: warn: 	instruction 'unallocated_hint' unimplemented
src/arch/arm/insts/pseudo.cc:174: warn: 	instruction 'bti' unimplemented
src/sim/syscall_emul.hh:816: warn: Unsupported ioctl call (return ENOTTY): ioctl(1, 0x802c542a, ...) @ (0x442c5c=>0x442c60).(0=>1)
elements=1000000 ops=100000 write_ratio=25 seed=1
elapsed=0.002677 s
read_ops=74821 (27.952 Mop/s)
write_ops=25179 (9.406 Mop/s)
total_ops=100000 (37.358 Mop/s)
read_sum=11542828953556803800
write_sum=13284600926069978378
All simulation events were successful.
Done with the simulation after 35.74 seconds of wall clock time!
Running with ISA=X86, SQ/LQ size=8, write-ratio=25
Global frequency set at 1000000000000 ticks per second
warn: rounding error > tolerance
    29.103830 rounded to 29
warn: rounding error > tolerance
    29.103830 rounded to 29
warn: No dot file generated. Please install pydot to generate the dot file and pdf.
warn: rounding error > tolerance
    29.103830 rounded to 29
src/base/statistics.hh:279: warn: One of the stats is a legacy stat. Legacy stat is a stat that does not belong to any statistics::Group. Legacy stat is deprecated.
src/base/stats/storage.hh:278: warn: Bucket size (4) does not divide range [1:32] into equal-sized buckets. Rounding up.
src/base/stats/storage.hh:278: warn: Bucket size (4) does not divide range [1:8] into equal-sized buckets. Rounding up.
src/base/remote_gdb.cc:418: warn: Sockets disabled, not accepting gdb connections
gem5 Simulator System.  https://www.gem5.org
gem5 is copyrighted software; use the --copyright option for details.

gem5 version 25.1.0.0
gem5 compiled Apr  9 2026 07:51:36
gem5 started Apr 18 2026 01:52:02
gem5 executing on shafin-HP-Laptop-14s-fq1786, pid 646495
command line: ./gem5/build/ALL/gem5.opt rw_ratio_bench.py --binary-path rw_ratio_bench-X86 --isa X86 --sq-size 8 --lq-size 8 --write-ratio 25

info: Standard input is not a terminal, disabling listeners.
Parameters:
  binary-path: rw_ratio_bench-X86
  write-ratio: 25
  isa: X86
  rob-size: 512
  lq-size: 8
  sq-size: 8
Running the simulation
Using O3 cpu
src/sim/syscall_emul.cc:86: warn: ignoring syscall set_robust_list(...)
src/sim/syscall_emul.cc:86: warn: ignoring syscall rseq(...)
src/sim/mem_state.cc:443: info: Increasing stack size by one page.
src/sim/syscall_emul.hh:1127: warn: readlink() called on '/proc/self/exe' may yield unexpected results in various settings.
      Returning '/media/shafin/secondary/CXL-consistency-tax/rw_ratio_bench-X86'
src/sim/syscall_emul.cc:86: warn: ignoring syscall mprotect(...)
elements=1000000 ops=100000 write_ratio=25 seed=1
elapsed=0.011633 s
read_ops=74821 (6.432 Mop/s)
write_ops=25179 (2.164 Mop/s)
total_ops=100000 (8.596 Mop/s)
read_sum=11542828953556803800
write_sum=13284600926069978378
All simulation events were successful.
Done with the simulation after 99.44 seconds of wall clock time!
Running with ISA=X86, SQ/LQ size=16, write-ratio=25
Global frequency set at 1000000000000 ticks per second
warn: rounding error > tolerance
    29.103830 rounded to 29
warn: rounding error > tolerance
    29.103830 rounded to 29
warn: No dot file generated. Please install pydot to generate the dot file and pdf.
warn: rounding error > tolerance
    29.103830 rounded to 29
src/base/statistics.hh:279: warn: One of the stats is a legacy stat. Legacy stat is a stat that does not belong to any statistics::Group. Legacy stat is deprecated.
src/base/stats/storage.hh:278: warn: Bucket size (4) does not divide range [1:32] into equal-sized buckets. Rounding up.
src/base/stats/storage.hh:278: warn: Bucket size (4) does not divide range [1:8] into equal-sized buckets. Rounding up.
src/base/remote_gdb.cc:418: warn: Sockets disabled, not accepting gdb connections
gem5 Simulator System.  https://www.gem5.org
gem5 is copyrighted software; use the --copyright option for details.

gem5 version 25.1.0.0
gem5 compiled Apr  9 2026 07:51:36
gem5 started Apr 18 2026 01:53:42
gem5 executing on shafin-HP-Laptop-14s-fq1786, pid 647383
command line: ./gem5/build/ALL/gem5.opt rw_ratio_bench.py --binary-path rw_ratio_bench-X86 --isa X86 --sq-size 16 --lq-size 16 --write-ratio 25

info: Standard input is not a terminal, disabling listeners.
Parameters:
  binary-path: rw_ratio_bench-X86
  write-ratio: 25
  isa: X86
  rob-size: 512
  lq-size: 16
  sq-size: 16
Running the simulation
Using O3 cpu
src/sim/syscall_emul.cc:86: warn: ignoring syscall set_robust_list(...)
src/sim/syscall_emul.cc:86: warn: ignoring syscall rseq(...)
src/sim/mem_state.cc:443: info: Increasing stack size by one page.
src/sim/syscall_emul.hh:1127: warn: readlink() called on '/proc/self/exe' may yield unexpected results in various settings.
      Returning '/media/shafin/secondary/CXL-consistency-tax/rw_ratio_bench-X86'
src/sim/syscall_emul.cc:86: warn: ignoring syscall mprotect(...)
elements=1000000 ops=100000 write_ratio=25 seed=1
elapsed=0.011633 s
read_ops=74821 (6.432 Mop/s)
write_ops=25179 (2.164 Mop/s)
total_ops=100000 (8.596 Mop/s)
read_sum=11542828953556803800
write_sum=13284600926069978378
All simulation events were successful.
Done with the simulation after 101.37 seconds of wall clock time!
Running with ISA=X86, SQ/LQ size=32, write-ratio=25
Global frequency set at 1000000000000 ticks per second
warn: rounding error > tolerance
    29.103830 rounded to 29
warn: rounding error > tolerance
    29.103830 rounded to 29
warn: No dot file generated. Please install pydot to generate the dot file and pdf.
warn: rounding error > tolerance
    29.103830 rounded to 29
src/base/statistics.hh:279: warn: One of the stats is a legacy stat. Legacy stat is a stat that does not belong to any statistics::Group. Legacy stat is deprecated.
src/base/stats/storage.hh:278: warn: Bucket size (4) does not divide range [1:32] into equal-sized buckets. Rounding up.
src/base/stats/storage.hh:278: warn: Bucket size (4) does not divide range [1:8] into equal-sized buckets. Rounding up.
src/base/remote_gdb.cc:418: warn: Sockets disabled, not accepting gdb connections
gem5 Simulator System.  https://www.gem5.org
gem5 is copyrighted software; use the --copyright option for details.

gem5 version 25.1.0.0
gem5 compiled Apr  9 2026 07:51:36
gem5 started Apr 18 2026 01:55:24
gem5 executing on shafin-HP-Laptop-14s-fq1786, pid 648300
command line: ./gem5/build/ALL/gem5.opt rw_ratio_bench.py --binary-path rw_ratio_bench-X86 --isa X86 --sq-size 32 --lq-size 32 --write-ratio 25

info: Standard input is not a terminal, disabling listeners.
Parameters:
  binary-path: rw_ratio_bench-X86
  write-ratio: 25
  isa: X86
  rob-size: 512
  lq-size: 32
  sq-size: 32
Running the simulation
Using O3 cpu
src/sim/syscall_emul.cc:86: warn: ignoring syscall set_robust_list(...)
src/sim/syscall_emul.cc:86: warn: ignoring syscall rseq(...)
src/sim/mem_state.cc:443: info: Increasing stack size by one page.
src/sim/syscall_emul.hh:1127: warn: readlink() called on '/proc/self/exe' may yield unexpected results in various settings.
      Returning '/media/shafin/secondary/CXL-consistency-tax/rw_ratio_bench-X86'
src/sim/syscall_emul.cc:86: warn: ignoring syscall mprotect(...)
elements=1000000 ops=100000 write_ratio=25 seed=1
elapsed=0.011633 s
read_ops=74821 (6.432 Mop/s)
write_ops=25179 (2.164 Mop/s)
total_ops=100000 (8.596 Mop/s)
read_sum=11542828953556803800
write_sum=13284600926069978378
All simulation events were successful.
Done with the simulation after 102.15 seconds of wall clock time!
Running with ISA=X86, SQ/LQ size=64, write-ratio=25
Global frequency set at 1000000000000 ticks per second
warn: rounding error > tolerance
    29.103830 rounded to 29
warn: rounding error > tolerance
    29.103830 rounded to 29
warn: No dot file generated. Please install pydot to generate the dot file and pdf.
warn: rounding error > tolerance
    29.103830 rounded to 29
src/base/statistics.hh:279: warn: One of the stats is a legacy stat. Legacy stat is a stat that does not belong to any statistics::Group. Legacy stat is deprecated.
src/base/stats/storage.hh:278: warn: Bucket size (4) does not divide range [1:32] into equal-sized buckets. Rounding up.
src/base/stats/storage.hh:278: warn: Bucket size (4) does not divide range [1:8] into equal-sized buckets. Rounding up.
src/base/remote_gdb.cc:418: warn: Sockets disabled, not accepting gdb connections
gem5 Simulator System.  https://www.gem5.org
gem5 is copyrighted software; use the --copyright option for details.

gem5 version 25.1.0.0
gem5 compiled Apr  9 2026 07:51:36
gem5 started Apr 18 2026 01:57:07
gem5 executing on shafin-HP-Laptop-14s-fq1786, pid 649254
command line: ./gem5/build/ALL/gem5.opt rw_ratio_bench.py --binary-path rw_ratio_bench-X86 --isa X86 --sq-size 64 --lq-size 64 --write-ratio 25

info: Standard input is not a terminal, disabling listeners.
Parameters:
  binary-path: rw_ratio_bench-X86
  write-ratio: 25
  isa: X86
  rob-size: 512
  lq-size: 64
  sq-size: 64
Running the simulation
Using O3 cpu
src/sim/syscall_emul.cc:86: warn: ignoring syscall set_robust_list(...)
src/sim/syscall_emul.cc:86: warn: ignoring syscall rseq(...)
src/sim/mem_state.cc:443: info: Increasing stack size by one page.
src/sim/syscall_emul.hh:1127: warn: readlink() called on '/proc/self/exe' may yield unexpected results in various settings.
      Returning '/media/shafin/secondary/CXL-consistency-tax/rw_ratio_bench-X86'
src/sim/syscall_emul.cc:86: warn: ignoring syscall mprotect(...)
elements=1000000 ops=100000 write_ratio=25 seed=1
elapsed=0.011633 s
read_ops=74821 (6.432 Mop/s)
write_ops=25179 (2.164 Mop/s)
total_ops=100000 (8.596 Mop/s)
read_sum=11542828953556803800
write_sum=13284600926069978378
All simulation events were successful.
Done with the simulation after 103.33 seconds of wall clock time!
Running with ISA=X86, SQ/LQ size=128, write-ratio=25
Global frequency set at 1000000000000 ticks per second
warn: rounding error > tolerance
    29.103830 rounded to 29
warn: rounding error > tolerance
    29.103830 rounded to 29
warn: No dot file generated. Please install pydot to generate the dot file and pdf.
warn: rounding error > tolerance
    29.103830 rounded to 29
src/base/statistics.hh:279: warn: One of the stats is a legacy stat. Legacy stat is a stat that does not belong to any statistics::Group. Legacy stat is deprecated.
src/base/stats/storage.hh:278: warn: Bucket size (4) does not divide range [1:32] into equal-sized buckets. Rounding up.
src/base/stats/storage.hh:278: warn: Bucket size (4) does not divide range [1:8] into equal-sized buckets. Rounding up.
src/base/remote_gdb.cc:418: warn: Sockets disabled, not accepting gdb connections
gem5 Simulator System.  https://www.gem5.org
gem5 is copyrighted software; use the --copyright option for details.

gem5 version 25.1.0.0
gem5 compiled Apr  9 2026 07:51:36
gem5 started Apr 18 2026 01:58:52
gem5 executing on shafin-HP-Laptop-14s-fq1786, pid 650005
command line: ./gem5/build/ALL/gem5.opt rw_ratio_bench.py --binary-path rw_ratio_bench-X86 --isa X86 --sq-size 128 --lq-size 128 --write-ratio 25

info: Standard input is not a terminal, disabling listeners.
Parameters:
  binary-path: rw_ratio_bench-X86
  write-ratio: 25
  isa: X86
  rob-size: 512
  lq-size: 128
  sq-size: 128
Running the simulation
Using O3 cpu
src/sim/syscall_emul.cc:86: warn: ignoring syscall set_robust_list(...)
src/sim/syscall_emul.cc:86: warn: ignoring syscall rseq(...)
src/sim/mem_state.cc:443: info: Increasing stack size by one page.
src/sim/syscall_emul.hh:1127: warn: readlink() called on '/proc/self/exe' may yield unexpected results in various settings.
      Returning '/media/shafin/secondary/CXL-consistency-tax/rw_ratio_bench-X86'
src/sim/syscall_emul.cc:86: warn: ignoring syscall mprotect(...)
elements=1000000 ops=100000 write_ratio=25 seed=1
elapsed=0.011633 s
read_ops=74821 (6.432 Mop/s)
write_ops=25179 (2.164 Mop/s)
total_ops=100000 (8.596 Mop/s)
read_sum=11542828953556803800
write_sum=13284600926069978378
All simulation events were successful.
Done with the simulation after 104.98 seconds of wall clock time!
Running with ISA=ARM, SQ/LQ size=8, write-ratio=75
Global frequency set at 1000000000000 ticks per second
warn: rounding error > tolerance
    29.103830 rounded to 29
warn: rounding error > tolerance
    29.103830 rounded to 29
warn: No dot file generated. Please install pydot to generate the dot file and pdf.
warn: rounding error > tolerance
    29.103830 rounded to 29
src/base/statistics.hh:279: warn: One of the stats is a legacy stat. Legacy stat is a stat that does not belong to any statistics::Group. Legacy stat is deprecated.
src/base/stats/storage.hh:278: warn: Bucket size (4) does not divide range [1:32] into equal-sized buckets. Rounding up.
src/base/stats/storage.hh:278: warn: Bucket size (4) does not divide range [1:8] into equal-sized buckets. Rounding up.
src/base/remote_gdb.cc:418: warn: Sockets disabled, not accepting gdb connections
gem5 Simulator System.  https://www.gem5.org
gem5 is copyrighted software; use the --copyright option for details.

gem5 version 25.1.0.0
gem5 compiled Apr  9 2026 07:51:36
gem5 started Apr 18 2026 02:00:37
gem5 executing on shafin-HP-Laptop-14s-fq1786, pid 651027
command line: ./gem5/build/ALL/gem5.opt rw_ratio_bench.py --binary-path rw_ratio_bench-ARM --isa ARM --sq-size 8 --lq-size 8 --write-ratio 75

info: Standard input is not a terminal, disabling listeners.
Parameters:
  binary-path: rw_ratio_bench-ARM
  write-ratio: 75
  isa: ARM
  rob-size: 512
  lq-size: 8
  sq-size: 8
Running the simulation
Using O3 cpu
src/arch/arm/insts/pseudo.cc:174: warn: 	instruction 'bti' unimplemented
src/sim/syscall_emul.cc:86: warn: ignoring syscall set_robust_list(...)
src/sim/syscall_emul.cc:97: warn: ignoring syscall rseq(...)
      (further warnings will be suppressed)
src/sim/mem_state.cc:443: info: Increasing stack size by one page.
src/sim/syscall_emul.hh:1127: warn: readlink() called on '/proc/self/exe' may yield unexpected results in various settings.
      Returning '/media/shafin/secondary/CXL-consistency-tax/rw_ratio_bench-ARM'
src/sim/syscall_emul.cc:86: warn: ignoring syscall mprotect(...)
src/arch/arm/insts/pseudo.cc:174: warn: 	instruction 'unallocated_hint' unimplemented
src/arch/arm/insts/pseudo.cc:174: warn: 	instruction 'bti' unimplemented
src/sim/syscall_emul.hh:816: warn: Unsupported ioctl call (return ENOTTY): ioctl(1, 0x802c542a, ...) @ (0x442c5c=>0x442c60).(0=>1)
elements=1000000 ops=100000 write_ratio=75 seed=1
elapsed=0.004816 s
read_ops=24945 (5.180 Mop/s)
write_ops=75055 (15.585 Mop/s)
total_ops=100000 (20.764 Mop/s)
read_sum=10608295516379971852
write_sum=17130558444781473672
All simulation events were successful.
Done with the simulation after 55.22 seconds of wall clock time!
Running with ISA=ARM, SQ/LQ size=16, write-ratio=75
Global frequency set at 1000000000000 ticks per second
warn: rounding error > tolerance
    29.103830 rounded to 29
warn: rounding error > tolerance
    29.103830 rounded to 29
warn: No dot file generated. Please install pydot to generate the dot file and pdf.
warn: rounding error > tolerance
    29.103830 rounded to 29
src/base/statistics.hh:279: warn: One of the stats is a legacy stat. Legacy stat is a stat that does not belong to any statistics::Group. Legacy stat is deprecated.
src/base/stats/storage.hh:278: warn: Bucket size (4) does not divide range [1:32] into equal-sized buckets. Rounding up.
src/base/stats/storage.hh:278: warn: Bucket size (4) does not divide range [1:8] into equal-sized buckets. Rounding up.
src/base/remote_gdb.cc:418: warn: Sockets disabled, not accepting gdb connections
gem5 Simulator System.  https://www.gem5.org
gem5 is copyrighted software; use the --copyright option for details.

gem5 version 25.1.0.0
gem5 compiled Apr  9 2026 07:51:36
gem5 started Apr 18 2026 02:01:34
gem5 executing on shafin-HP-Laptop-14s-fq1786, pid 651698
command line: ./gem5/build/ALL/gem5.opt rw_ratio_bench.py --binary-path rw_ratio_bench-ARM --isa ARM --sq-size 16 --lq-size 16 --write-ratio 75

info: Standard input is not a terminal, disabling listeners.
Parameters:
  binary-path: rw_ratio_bench-ARM
  write-ratio: 75
  isa: ARM
  rob-size: 512
  lq-size: 16
  sq-size: 16
Running the simulation
Using O3 cpu
src/arch/arm/insts/pseudo.cc:174: warn: 	instruction 'bti' unimplemented
src/sim/syscall_emul.cc:86: warn: ignoring syscall set_robust_list(...)
src/sim/syscall_emul.cc:97: warn: ignoring syscall rseq(...)
      (further warnings will be suppressed)
src/sim/mem_state.cc:443: info: Increasing stack size by one page.
src/sim/syscall_emul.hh:1127: warn: readlink() called on '/proc/self/exe' may yield unexpected results in various settings.
      Returning '/media/shafin/secondary/CXL-consistency-tax/rw_ratio_bench-ARM'
src/sim/syscall_emul.cc:86: warn: ignoring syscall mprotect(...)
src/arch/arm/insts/pseudo.cc:174: warn: 	instruction 'unallocated_hint' unimplemented
src/arch/arm/insts/pseudo.cc:174: warn: 	instruction 'bti' unimplemented
src/sim/syscall_emul.hh:816: warn: Unsupported ioctl call (return ENOTTY): ioctl(1, 0x802c542a, ...) @ (0x442c5c=>0x442c60).(0=>1)
elements=1000000 ops=100000 write_ratio=75 seed=1
elapsed=0.002890 s
read_ops=24945 (8.631 Mop/s)
write_ops=75055 (25.970 Mop/s)
total_ops=100000 (34.602 Mop/s)
read_sum=10608295516379971852
write_sum=17130558444781473672
All simulation events were successful.
Done with the simulation after 48.35 seconds of wall clock time!
Running with ISA=ARM, SQ/LQ size=32, write-ratio=75
Global frequency set at 1000000000000 ticks per second
warn: rounding error > tolerance
    29.103830 rounded to 29
warn: rounding error > tolerance
    29.103830 rounded to 29
warn: No dot file generated. Please install pydot to generate the dot file and pdf.
warn: rounding error > tolerance
    29.103830 rounded to 29
src/base/statistics.hh:279: warn: One of the stats is a legacy stat. Legacy stat is a stat that does not belong to any statistics::Group. Legacy stat is deprecated.
src/base/stats/storage.hh:278: warn: Bucket size (4) does not divide range [1:32] into equal-sized buckets. Rounding up.
src/base/stats/storage.hh:278: warn: Bucket size (4) does not divide range [1:8] into equal-sized buckets. Rounding up.
src/base/remote_gdb.cc:418: warn: Sockets disabled, not accepting gdb connections
gem5 Simulator System.  https://www.gem5.org
gem5 is copyrighted software; use the --copyright option for details.

gem5 version 25.1.0.0
gem5 compiled Apr  9 2026 07:51:36
gem5 started Apr 18 2026 02:02:23
gem5 executing on shafin-HP-Laptop-14s-fq1786, pid 652059
command line: ./gem5/build/ALL/gem5.opt rw_ratio_bench.py --binary-path rw_ratio_bench-ARM --isa ARM --sq-size 32 --lq-size 32 --write-ratio 75

info: Standard input is not a terminal, disabling listeners.
Parameters:
  binary-path: rw_ratio_bench-ARM
  write-ratio: 75
  isa: ARM
  rob-size: 512
  lq-size: 32
  sq-size: 32
Running the simulation
Using O3 cpu
src/arch/arm/insts/pseudo.cc:174: warn: 	instruction 'bti' unimplemented
src/sim/syscall_emul.cc:86: warn: ignoring syscall set_robust_list(...)
src/sim/syscall_emul.cc:97: warn: ignoring syscall rseq(...)
      (further warnings will be suppressed)
src/sim/mem_state.cc:443: info: Increasing stack size by one page.
src/sim/syscall_emul.hh:1127: warn: readlink() called on '/proc/self/exe' may yield unexpected results in various settings.
      Returning '/media/shafin/secondary/CXL-consistency-tax/rw_ratio_bench-ARM'
src/sim/syscall_emul.cc:86: warn: ignoring syscall mprotect(...)
src/arch/arm/insts/pseudo.cc:174: warn: 	instruction 'unallocated_hint' unimplemented
src/arch/arm/insts/pseudo.cc:174: warn: 	instruction 'bti' unimplemented
src/sim/syscall_emul.hh:816: warn: Unsupported ioctl call (return ENOTTY): ioctl(1, 0x802c542a, ...) @ (0x442c5c=>0x442c60).(0=>1)
elements=1000000 ops=100000 write_ratio=75 seed=1
elapsed=0.002529 s
read_ops=24945 (9.865 Mop/s)
write_ops=75055 (29.683 Mop/s)
total_ops=100000 (39.549 Mop/s)
read_sum=10608295516379971852
write_sum=17130558444781473672
All simulation events were successful.
Done with the simulation after 42.58 seconds of wall clock time!
Running with ISA=ARM, SQ/LQ size=64, write-ratio=75
Global frequency set at 1000000000000 ticks per second
warn: rounding error > tolerance
    29.103830 rounded to 29
warn: rounding error > tolerance
    29.103830 rounded to 29
warn: No dot file generated. Please install pydot to generate the dot file and pdf.
warn: rounding error > tolerance
    29.103830 rounded to 29
src/base/statistics.hh:279: warn: One of the stats is a legacy stat. Legacy stat is a stat that does not belong to any statistics::Group. Legacy stat is deprecated.
src/base/stats/storage.hh:278: warn: Bucket size (4) does not divide range [1:32] into equal-sized buckets. Rounding up.
src/base/stats/storage.hh:278: warn: Bucket size (4) does not divide range [1:8] into equal-sized buckets. Rounding up.
src/base/remote_gdb.cc:418: warn: Sockets disabled, not accepting gdb connections
gem5 Simulator System.  https://www.gem5.org
gem5 is copyrighted software; use the --copyright option for details.

gem5 version 25.1.0.0
gem5 compiled Apr  9 2026 07:51:36
gem5 started Apr 18 2026 02:03:06
gem5 executing on shafin-HP-Laptop-14s-fq1786, pid 652647
command line: ./gem5/build/ALL/gem5.opt rw_ratio_bench.py --binary-path rw_ratio_bench-ARM --isa ARM --sq-size 64 --lq-size 64 --write-ratio 75

info: Standard input is not a terminal, disabling listeners.
Parameters:
  binary-path: rw_ratio_bench-ARM
  write-ratio: 75
  isa: ARM
  rob-size: 512
  lq-size: 64
  sq-size: 64
Running the simulation
Using O3 cpu
src/arch/arm/insts/pseudo.cc:174: warn: 	instruction 'bti' unimplemented
src/sim/syscall_emul.cc:86: warn: ignoring syscall set_robust_list(...)
src/sim/syscall_emul.cc:97: warn: ignoring syscall rseq(...)
      (further warnings will be suppressed)
src/sim/mem_state.cc:443: info: Increasing stack size by one page.
src/sim/syscall_emul.hh:1127: warn: readlink() called on '/proc/self/exe' may yield unexpected results in various settings.
      Returning '/media/shafin/secondary/CXL-consistency-tax/rw_ratio_bench-ARM'
src/sim/syscall_emul.cc:86: warn: ignoring syscall mprotect(...)
src/arch/arm/insts/pseudo.cc:174: warn: 	instruction 'unallocated_hint' unimplemented
src/arch/arm/insts/pseudo.cc:174: warn: 	instruction 'bti' unimplemented
src/sim/syscall_emul.hh:816: warn: Unsupported ioctl call (return ENOTTY): ioctl(1, 0x802c542a, ...) @ (0x442c5c=>0x442c60).(0=>1)
elements=1000000 ops=100000 write_ratio=75 seed=1
elapsed=0.002529 s
read_ops=24945 (9.865 Mop/s)
write_ops=75055 (29.683 Mop/s)
total_ops=100000 (39.549 Mop/s)
read_sum=10608295516379971852
write_sum=17130558444781473672
All simulation events were successful.
Done with the simulation after 38.87 seconds of wall clock time!
Running with ISA=ARM, SQ/LQ size=128, write-ratio=75
Global frequency set at 1000000000000 ticks per second
warn: rounding error > tolerance
    29.103830 rounded to 29
warn: rounding error > tolerance
    29.103830 rounded to 29
warn: No dot file generated. Please install pydot to generate the dot file and pdf.
warn: rounding error > tolerance
    29.103830 rounded to 29
src/base/statistics.hh:279: warn: One of the stats is a legacy stat. Legacy stat is a stat that does not belong to any statistics::Group. Legacy stat is deprecated.
src/base/stats/storage.hh:278: warn: Bucket size (4) does not divide range [1:32] into equal-sized buckets. Rounding up.
src/base/stats/storage.hh:278: warn: Bucket size (4) does not divide range [1:8] into equal-sized buckets. Rounding up.
src/base/remote_gdb.cc:418: warn: Sockets disabled, not accepting gdb connections
gem5 Simulator System.  https://www.gem5.org
gem5 is copyrighted software; use the --copyright option for details.

gem5 version 25.1.0.0
gem5 compiled Apr  9 2026 07:51:36
gem5 started Apr 18 2026 02:03:46
gem5 executing on shafin-HP-Laptop-14s-fq1786, pid 652951
command line: ./gem5/build/ALL/gem5.opt rw_ratio_bench.py --binary-path rw_ratio_bench-ARM --isa ARM --sq-size 128 --lq-size 128 --write-ratio 75

info: Standard input is not a terminal, disabling listeners.
Parameters:
  binary-path: rw_ratio_bench-ARM
  write-ratio: 75
  isa: ARM
  rob-size: 512
  lq-size: 128
  sq-size: 128
Running the simulation
Using O3 cpu
src/arch/arm/insts/pseudo.cc:174: warn: 	instruction 'bti' unimplemented
src/sim/syscall_emul.cc:86: warn: ignoring syscall set_robust_list(...)
src/sim/syscall_emul.cc:97: warn: ignoring syscall rseq(...)
      (further warnings will be suppressed)
src/sim/mem_state.cc:443: info: Increasing stack size by one page.
src/sim/syscall_emul.hh:1127: warn: readlink() called on '/proc/self/exe' may yield unexpected results in various settings.
      Returning '/media/shafin/secondary/CXL-consistency-tax/rw_ratio_bench-ARM'
src/sim/syscall_emul.cc:86: warn: ignoring syscall mprotect(...)
src/arch/arm/insts/pseudo.cc:174: warn: 	instruction 'unallocated_hint' unimplemented
src/arch/arm/insts/pseudo.cc:174: warn: 	instruction 'bti' unimplemented
src/sim/syscall_emul.hh:816: warn: Unsupported ioctl call (return ENOTTY): ioctl(1, 0x802c542a, ...) @ (0x442c5c=>0x442c60).(0=>1)
elements=1000000 ops=100000 write_ratio=75 seed=1
elapsed=0.002529 s
read_ops=24945 (9.865 Mop/s)
write_ops=75055 (29.683 Mop/s)
total_ops=100000 (39.549 Mop/s)
read_sum=10608295516379971852
write_sum=17130558444781473672
All simulation events were successful.
Done with the simulation after 37.32 seconds of wall clock time!
Running with ISA=X86, SQ/LQ size=8, write-ratio=75
Global frequency set at 1000000000000 ticks per second
warn: rounding error > tolerance
    29.103830 rounded to 29
warn: rounding error > tolerance
    29.103830 rounded to 29
warn: No dot file generated. Please install pydot to generate the dot file and pdf.
warn: rounding error > tolerance
    29.103830 rounded to 29
src/base/statistics.hh:279: warn: One of the stats is a legacy stat. Legacy stat is a stat that does not belong to any statistics::Group. Legacy stat is deprecated.
src/base/stats/storage.hh:278: warn: Bucket size (4) does not divide range [1:32] into equal-sized buckets. Rounding up.
src/base/stats/storage.hh:278: warn: Bucket size (4) does not divide range [1:8] into equal-sized buckets. Rounding up.
src/base/remote_gdb.cc:418: warn: Sockets disabled, not accepting gdb connections
gem5 Simulator System.  https://www.gem5.org
gem5 is copyrighted software; use the --copyright option for details.

gem5 version 25.1.0.0
gem5 compiled Apr  9 2026 07:51:36
gem5 started Apr 18 2026 02:04:24
gem5 executing on shafin-HP-Laptop-14s-fq1786, pid 653589
command line: ./gem5/build/ALL/gem5.opt rw_ratio_bench.py --binary-path rw_ratio_bench-X86 --isa X86 --sq-size 8 --lq-size 8 --write-ratio 75

info: Standard input is not a terminal, disabling listeners.
Parameters:
  binary-path: rw_ratio_bench-X86
  write-ratio: 75
  isa: X86
  rob-size: 512
  lq-size: 8
  sq-size: 8
Running the simulation
Using O3 cpu
src/sim/syscall_emul.cc:86: warn: ignoring syscall set_robust_list(...)
src/sim/syscall_emul.cc:86: warn: ignoring syscall rseq(...)
src/sim/mem_state.cc:443: info: Increasing stack size by one page.
src/sim/syscall_emul.hh:1127: warn: readlink() called on '/proc/self/exe' may yield unexpected results in various settings.
      Returning '/media/shafin/secondary/CXL-consistency-tax/rw_ratio_bench-X86'
src/sim/syscall_emul.cc:86: warn: ignoring syscall mprotect(...)
elements=1000000 ops=100000 write_ratio=75 seed=1
elapsed=0.017441 s
read_ops=24945 (1.430 Mop/s)
write_ops=75055 (4.303 Mop/s)
total_ops=100000 (5.733 Mop/s)
read_sum=10608295516379971852
write_sum=17130558444781473672
All simulation events were successful.
Done with the simulation after 118.73 seconds of wall clock time!
Running with ISA=X86, SQ/LQ size=16, write-ratio=75
Global frequency set at 1000000000000 ticks per second
warn: rounding error > tolerance
    29.103830 rounded to 29
warn: rounding error > tolerance
    29.103830 rounded to 29
warn: No dot file generated. Please install pydot to generate the dot file and pdf.
warn: rounding error > tolerance
    29.103830 rounded to 29
src/base/statistics.hh:279: warn: One of the stats is a legacy stat. Legacy stat is a stat that does not belong to any statistics::Group. Legacy stat is deprecated.
src/base/stats/storage.hh:278: warn: Bucket size (4) does not divide range [1:32] into equal-sized buckets. Rounding up.
src/base/stats/storage.hh:278: warn: Bucket size (4) does not divide range [1:8] into equal-sized buckets. Rounding up.
src/base/remote_gdb.cc:418: warn: Sockets disabled, not accepting gdb connections
gem5 Simulator System.  https://www.gem5.org
gem5 is copyrighted software; use the --copyright option for details.

gem5 version 25.1.0.0
gem5 compiled Apr  9 2026 07:51:36
gem5 started Apr 18 2026 02:06:24
gem5 executing on shafin-HP-Laptop-14s-fq1786, pid 654641
command line: ./gem5/build/ALL/gem5.opt rw_ratio_bench.py --binary-path rw_ratio_bench-X86 --isa X86 --sq-size 16 --lq-size 16 --write-ratio 75

info: Standard input is not a terminal, disabling listeners.
Parameters:
  binary-path: rw_ratio_bench-X86
  write-ratio: 75
  isa: X86
  rob-size: 512
  lq-size: 16
  sq-size: 16
Running the simulation
Using O3 cpu
src/sim/syscall_emul.cc:86: warn: ignoring syscall set_robust_list(...)
src/sim/syscall_emul.cc:86: warn: ignoring syscall rseq(...)
src/sim/mem_state.cc:443: info: Increasing stack size by one page.
src/sim/syscall_emul.hh:1127: warn: readlink() called on '/proc/self/exe' may yield unexpected results in various settings.
      Returning '/media/shafin/secondary/CXL-consistency-tax/rw_ratio_bench-X86'
src/sim/syscall_emul.cc:86: warn: ignoring syscall mprotect(...)
elements=1000000 ops=100000 write_ratio=75 seed=1
elapsed=0.017442 s
read_ops=24945 (1.430 Mop/s)
write_ops=75055 (4.303 Mop/s)
total_ops=100000 (5.733 Mop/s)
read_sum=10608295516379971852
write_sum=17130558444781473672
All simulation events were successful.
Done with the simulation after 120.11 seconds of wall clock time!
Running with ISA=X86, SQ/LQ size=32, write-ratio=75
Global frequency set at 1000000000000 ticks per second
warn: rounding error > tolerance
    29.103830 rounded to 29
warn: rounding error > tolerance
    29.103830 rounded to 29
warn: No dot file generated. Please install pydot to generate the dot file and pdf.
warn: rounding error > tolerance
    29.103830 rounded to 29
src/base/statistics.hh:279: warn: One of the stats is a legacy stat. Legacy stat is a stat that does not belong to any statistics::Group. Legacy stat is deprecated.
src/base/stats/storage.hh:278: warn: Bucket size (4) does not divide range [1:32] into equal-sized buckets. Rounding up.
src/base/stats/storage.hh:278: warn: Bucket size (4) does not divide range [1:8] into equal-sized buckets. Rounding up.
src/base/remote_gdb.cc:418: warn: Sockets disabled, not accepting gdb connections
gem5 Simulator System.  https://www.gem5.org
gem5 is copyrighted software; use the --copyright option for details.

gem5 version 25.1.0.0
gem5 compiled Apr  9 2026 07:51:36
gem5 started Apr 18 2026 02:08:25
gem5 executing on shafin-HP-Laptop-14s-fq1786, pid 655579
command line: ./gem5/build/ALL/gem5.opt rw_ratio_bench.py --binary-path rw_ratio_bench-X86 --isa X86 --sq-size 32 --lq-size 32 --write-ratio 75

info: Standard input is not a terminal, disabling listeners.
Parameters:
  binary-path: rw_ratio_bench-X86
  write-ratio: 75
  isa: X86
  rob-size: 512
  lq-size: 32
  sq-size: 32
Running the simulation
Using O3 cpu
src/sim/syscall_emul.cc:86: warn: ignoring syscall set_robust_list(...)
src/sim/syscall_emul.cc:86: warn: ignoring syscall rseq(...)
src/sim/mem_state.cc:443: info: Increasing stack size by one page.
src/sim/syscall_emul.hh:1127: warn: readlink() called on '/proc/self/exe' may yield unexpected results in various settings.
      Returning '/media/shafin/secondary/CXL-consistency-tax/rw_ratio_bench-X86'
src/sim/syscall_emul.cc:86: warn: ignoring syscall mprotect(...)
elements=1000000 ops=100000 write_ratio=75 seed=1
elapsed=0.017444 s
read_ops=24945 (1.430 Mop/s)
write_ops=75055 (4.303 Mop/s)
total_ops=100000 (5.733 Mop/s)
read_sum=10608295516379971852
write_sum=17130558444781473672
All simulation events were successful.
Done with the simulation after 121.36 seconds of wall clock time!
Running with ISA=X86, SQ/LQ size=64, write-ratio=75
Global frequency set at 1000000000000 ticks per second
warn: rounding error > tolerance
    29.103830 rounded to 29
warn: rounding error > tolerance
    29.103830 rounded to 29
warn: No dot file generated. Please install pydot to generate the dot file and pdf.
warn: rounding error > tolerance
    29.103830 rounded to 29
src/base/statistics.hh:279: warn: One of the stats is a legacy stat. Legacy stat is a stat that does not belong to any statistics::Group. Legacy stat is deprecated.
src/base/stats/storage.hh:278: warn: Bucket size (4) does not divide range [1:32] into equal-sized buckets. Rounding up.
src/base/stats/storage.hh:278: warn: Bucket size (4) does not divide range [1:8] into equal-sized buckets. Rounding up.
src/base/remote_gdb.cc:418: warn: Sockets disabled, not accepting gdb connections
gem5 Simulator System.  https://www.gem5.org
gem5 is copyrighted software; use the --copyright option for details.

gem5 version 25.1.0.0
gem5 compiled Apr  9 2026 07:51:36
gem5 started Apr 18 2026 02:10:27
gem5 executing on shafin-HP-Laptop-14s-fq1786, pid 656734
command line: ./gem5/build/ALL/gem5.opt rw_ratio_bench.py --binary-path rw_ratio_bench-X86 --isa X86 --sq-size 64 --lq-size 64 --write-ratio 75

info: Standard input is not a terminal, disabling listeners.
Parameters:
  binary-path: rw_ratio_bench-X86
  write-ratio: 75
  isa: X86
  rob-size: 512
  lq-size: 64
  sq-size: 64
Running the simulation
Using O3 cpu
src/sim/syscall_emul.cc:86: warn: ignoring syscall set_robust_list(...)
src/sim/syscall_emul.cc:86: warn: ignoring syscall rseq(...)
src/sim/mem_state.cc:443: info: Increasing stack size by one page.
src/sim/syscall_emul.hh:1127: warn: readlink() called on '/proc/self/exe' may yield unexpected results in various settings.
      Returning '/media/shafin/secondary/CXL-consistency-tax/rw_ratio_bench-X86'
src/sim/syscall_emul.cc:86: warn: ignoring syscall mprotect(...)
elements=1000000 ops=100000 write_ratio=75 seed=1
elapsed=0.017458 s
read_ops=24945 (1.429 Mop/s)
write_ops=75055 (4.299 Mop/s)
total_ops=100000 (5.728 Mop/s)
read_sum=10608295516379971852
write_sum=17130558444781473672
All simulation events were successful.
Done with the simulation after 120.19 seconds of wall clock time!
Running with ISA=X86, SQ/LQ size=128, write-ratio=75
Global frequency set at 1000000000000 ticks per second
warn: rounding error > tolerance
    29.103830 rounded to 29
warn: rounding error > tolerance
    29.103830 rounded to 29
warn: No dot file generated. Please install pydot to generate the dot file and pdf.
warn: rounding error > tolerance
    29.103830 rounded to 29
src/base/statistics.hh:279: warn: One of the stats is a legacy stat. Legacy stat is a stat that does not belong to any statistics::Group. Legacy stat is deprecated.
src/base/stats/storage.hh:278: warn: Bucket size (4) does not divide range [1:32] into equal-sized buckets. Rounding up.
src/base/stats/storage.hh:278: warn: Bucket size (4) does not divide range [1:8] into equal-sized buckets. Rounding up.
src/base/remote_gdb.cc:418: warn: Sockets disabled, not accepting gdb connections
gem5 Simulator System.  https://www.gem5.org
gem5 is copyrighted software; use the --copyright option for details.

gem5 version 25.1.0.0
gem5 compiled Apr  9 2026 07:51:36
gem5 started Apr 18 2026 02:12:28
gem5 executing on shafin-HP-Laptop-14s-fq1786, pid 658276
command line: ./gem5/build/ALL/gem5.opt rw_ratio_bench.py --binary-path rw_ratio_bench-X86 --isa X86 --sq-size 128 --lq-size 128 --write-ratio 75

info: Standard input is not a terminal, disabling listeners.
Parameters:
  binary-path: rw_ratio_bench-X86
  write-ratio: 75
  isa: X86
  rob-size: 512
  lq-size: 128
  sq-size: 128
Running the simulation
Using O3 cpu
src/sim/syscall_emul.cc:86: warn: ignoring syscall set_robust_list(...)
src/sim/syscall_emul.cc:86: warn: ignoring syscall rseq(...)
src/sim/mem_state.cc:443: info: Increasing stack size by one page.
src/sim/syscall_emul.hh:1127: warn: readlink() called on '/proc/self/exe' may yield unexpected results in various settings.
      Returning '/media/shafin/secondary/CXL-consistency-tax/rw_ratio_bench-X86'
src/sim/syscall_emul.cc:86: warn: ignoring syscall mprotect(...)
elements=1000000 ops=100000 write_ratio=75 seed=1
elapsed=0.017799 s
read_ops=24945 (1.401 Mop/s)
write_ops=75055 (4.217 Mop/s)
total_ops=100000 (5.618 Mop/s)
read_sum=10608295516379971852
write_sum=17130558444781473672
All simulation events were successful.
Done with the simulation after 123.38 seconds of wall clock time!
Running with ISA=ARM, SQ/LQ size=8, write-ratio=0
Global frequency set at 1000000000000 ticks per second
warn: rounding error > tolerance
    29.103830 rounded to 29
warn: rounding error > tolerance
    29.103830 rounded to 29
warn: No dot file generated. Please install pydot to generate the dot file and pdf.
warn: rounding error > tolerance
    29.103830 rounded to 29
src/base/statistics.hh:279: warn: One of the stats is a legacy stat. Legacy stat is a stat that does not belong to any statistics::Group. Legacy stat is deprecated.
src/base/stats/storage.hh:278: warn: Bucket size (4) does not divide range [1:32] into equal-sized buckets. Rounding up.
src/base/stats/storage.hh:278: warn: Bucket size (4) does not divide range [1:8] into equal-sized buckets. Rounding up.
src/base/remote_gdb.cc:418: warn: Sockets disabled, not accepting gdb connections
gem5 Simulator System.  https://www.gem5.org
gem5 is copyrighted software; use the --copyright option for details.

gem5 version 25.1.0.0
gem5 compiled Apr  9 2026 07:51:36
gem5 started Apr 18 2026 02:14:32
gem5 executing on shafin-HP-Laptop-14s-fq1786, pid 659260
command line: ./gem5/build/ALL/gem5.opt rw_ratio_bench.py --binary-path rw_ratio_bench-ARM --isa ARM --sq-size 8 --lq-size 8 --write-ratio 0

info: Standard input is not a terminal, disabling listeners.
Parameters:
  binary-path: rw_ratio_bench-ARM
  write-ratio: 0
  isa: ARM
  rob-size: 512
  lq-size: 8
  sq-size: 8
Running the simulation
Using O3 cpu
src/arch/arm/insts/pseudo.cc:174: warn: 	instruction 'bti' unimplemented
src/sim/syscall_emul.cc:86: warn: ignoring syscall set_robust_list(...)
src/sim/syscall_emul.cc:97: warn: ignoring syscall rseq(...)
      (further warnings will be suppressed)
src/sim/mem_state.cc:443: info: Increasing stack size by one page.
src/sim/syscall_emul.hh:1127: warn: readlink() called on '/proc/self/exe' may yield unexpected results in various settings.
      Returning '/media/shafin/secondary/CXL-consistency-tax/rw_ratio_bench-ARM'
src/sim/syscall_emul.cc:86: warn: ignoring syscall mprotect(...)
src/arch/arm/insts/pseudo.cc:174: warn: 	instruction 'unallocated_hint' unimplemented
src/arch/arm/insts/pseudo.cc:174: warn: 	instruction 'bti' unimplemented
src/sim/syscall_emul.hh:816: warn: Unsupported ioctl call (return ENOTTY): ioctl(1, 0x802c542a, ...) @ (0x442c5c=>0x442c60).(0=>1)
elements=1000000 ops=100000 write_ratio=0 seed=1
elapsed=0.008554 s
read_ops=100000 (11.690 Mop/s)
write_ops=0 (0.000 Mop/s)
total_ops=100000 (11.690 Mop/s)
read_sum=7357944832993073577
write_sum=0
All simulation events were successful.
Done with the simulation after 58.51 seconds of wall clock time!
Running with ISA=ARM, SQ/LQ size=16, write-ratio=0
Global frequency set at 1000000000000 ticks per second
warn: rounding error > tolerance
    29.103830 rounded to 29
warn: rounding error > tolerance
    29.103830 rounded to 29
warn: No dot file generated. Please install pydot to generate the dot file and pdf.
warn: rounding error > tolerance
    29.103830 rounded to 29
src/base/statistics.hh:279: warn: One of the stats is a legacy stat. Legacy stat is a stat that does not belong to any statistics::Group. Legacy stat is deprecated.
src/base/stats/storage.hh:278: warn: Bucket size (4) does not divide range [1:32] into equal-sized buckets. Rounding up.
src/base/stats/storage.hh:278: warn: Bucket size (4) does not divide range [1:8] into equal-sized buckets. Rounding up.
src/base/remote_gdb.cc:418: warn: Sockets disabled, not accepting gdb connections
gem5 Simulator System.  https://www.gem5.org
gem5 is copyrighted software; use the --copyright option for details.

gem5 version 25.1.0.0
gem5 compiled Apr  9 2026 07:51:36
gem5 started Apr 18 2026 02:15:31
gem5 executing on shafin-HP-Laptop-14s-fq1786, pid 659610
command line: ./gem5/build/ALL/gem5.opt rw_ratio_bench.py --binary-path rw_ratio_bench-ARM --isa ARM --sq-size 16 --lq-size 16 --write-ratio 0

info: Standard input is not a terminal, disabling listeners.
Parameters:
  binary-path: rw_ratio_bench-ARM
  write-ratio: 0
  isa: ARM
  rob-size: 512
  lq-size: 16
  sq-size: 16
Running the simulation
Using O3 cpu
src/arch/arm/insts/pseudo.cc:174: warn: 	instruction 'bti' unimplemented
src/sim/syscall_emul.cc:86: warn: ignoring syscall set_robust_list(...)
src/sim/syscall_emul.cc:97: warn: ignoring syscall rseq(...)
      (further warnings will be suppressed)
src/sim/mem_state.cc:443: info: Increasing stack size by one page.
src/sim/syscall_emul.hh:1127: warn: readlink() called on '/proc/self/exe' may yield unexpected results in various settings.
      Returning '/media/shafin/secondary/CXL-consistency-tax/rw_ratio_bench-ARM'
src/sim/syscall_emul.cc:86: warn: ignoring syscall mprotect(...)
src/arch/arm/insts/pseudo.cc:174: warn: 	instruction 'unallocated_hint' unimplemented
src/arch/arm/insts/pseudo.cc:174: warn: 	instruction 'bti' unimplemented
src/sim/syscall_emul.hh:816: warn: Unsupported ioctl call (return ENOTTY): ioctl(1, 0x802c542a, ...) @ (0x442c5c=>0x442c60).(0=>1)
elements=1000000 ops=100000 write_ratio=0 seed=1
elapsed=0.004446 s
read_ops=100000 (22.490 Mop/s)
write_ops=0 (0.000 Mop/s)
total_ops=100000 (22.490 Mop/s)
read_sum=7357944832993073577
write_sum=0
All simulation events were successful.
Done with the simulation after 44.82 seconds of wall clock time!
Running with ISA=ARM, SQ/LQ size=32, write-ratio=0
[...]
read_sum=1984160668027299065
write_sum=15127924039229570755
All simulation events were successful.
Done with the simulation after 106.21 seconds of wall clock time!
Running with ISA=ARM, SQ/LQ size=128, write-ratio=25
Global frequency set at 1000000000000 ticks per second
warn: rounding error > tolerance
    29.103830 rounded to 29
warn: rounding error > tolerance
    29.103830 rounded to 29
warn: No dot file generated. Please install pydot to generate the dot file and pdf.
warn: rounding error > tolerance
    29.103830 rounded to 29
src/base/statistics.hh:279: warn: One of the stats is a legacy stat. Legacy stat is a stat that does not belong to any statistics::Group. Legacy stat is deprecated.
src/base/stats/storage.hh:278: warn: Bucket size (4) does not divide range [1:32] into equal-sized buckets. Rounding up.
src/base/stats/storage.hh:278: warn: Bucket size (4) does not divide range [1:8] into equal-sized buckets. Rounding up.
src/base/remote_gdb.cc:418: warn: Sockets disabled, not accepting gdb connections
gem5 Simulator System.  https://www.gem5.org
gem5 is copyrighted software; use the --copyright option for details.

gem5 version 25.1.0.0
gem5 compiled Apr  9 2026 07:51:36
gem5 started Apr 18 2026 04:11:36
gem5 executing on shafin-HP-Laptop-14s-fq1786, pid 709841
command line: ./gem5/build/ALL/gem5.opt rw_ratio_bench.py --binary-path rw_ratio_bench-ARM --isa ARM --sq-size 1 --lq-size 128 --write-ratio 25

info: Standard input is not a terminal, disabling listeners.
Parameters:
  binary-path: rw_ratio_bench-ARM
  write-ratio: 25
  isa: ARM
  rob-size: 512
  lq-size: 128
  sq-size: 1
Running the simulation
Using O3 cpu
src/arch/arm/insts/pseudo.cc:174: warn: 	instruction 'bti' unimplemented
src/sim/syscall_emul.cc:86: warn: ignoring syscall set_robust_list(...)
src/sim/syscall_emul.cc:97: warn: ignoring syscall rseq(...)
      (further warnings will be suppressed)
src/sim/mem_state.cc:443: info: Increasing stack size by one page.
src/sim/syscall_emul.hh:1127: warn: readlink() called on '/proc/self/exe' may yield unexpected results in various settings.
      Returning '/media/shafin/secondary/CXL-consistency-tax/rw_ratio_bench-ARM'
src/sim/syscall_emul.cc:86: warn: ignoring syscall mprotect(...)
src/arch/arm/insts/pseudo.cc:174: warn: 	instruction 'unallocated_hint' unimplemented
src/arch/arm/insts/pseudo.cc:174: warn: 	instruction 'bti' unimplemented
src/sim/syscall_emul.hh:816: warn: Unsupported ioctl call (return ENOTTY): ioctl(1, 0x802c542a, ...) @ (0x442c5c=>0x442c60).(0=>1)
elements=1000000 ops=100000 write_ratio=25 seed=1
elapsed=0.006545 s
read_ops=74821 (11.433 Mop/s)
write_ops=25179 (3.847 Mop/s)
total_ops=100000 (15.280 Mop/s)
read_sum=11542828953556803800
write_sum=13284600926069978378
All simulation events were successful.
Done with the simulation after 56.61 seconds of wall clock time!
Running with ISA=X86, SQ/LQ size=128, write-ratio=25
Global frequency set at 1000000000000 ticks per second
warn: rounding error > tolerance
    29.103830 rounded to 29
warn: rounding error > tolerance
    29.103830 rounded to 29
warn: No dot file generated. Please install pydot to generate the dot file and pdf.
warn: rounding error > tolerance
    29.103830 rounded to 29
src/base/statistics.hh:279: warn: One of the stats is a legacy stat. Legacy stat is a stat that does not belong to any statistics::Group. Legacy stat is deprecated.
src/base/stats/storage.hh:278: warn: Bucket size (4) does not divide range [1:32] into equal-sized buckets. Rounding up.
src/base/stats/storage.hh:278: warn: Bucket size (4) does not divide range [1:8] into equal-sized buckets. Rounding up.
src/base/remote_gdb.cc:418: warn: Sockets disabled, not accepting gdb connections
gem5 Simulator System.  https://www.gem5.org
gem5 is copyrighted software; use the --copyright option for details.

gem5 version 25.1.0.0
gem5 compiled Apr  9 2026 07:51:36
gem5 started Apr 18 2026 04:12:33
gem5 executing on shafin-HP-Laptop-14s-fq1786, pid 710140
command line: ./gem5/build/ALL/gem5.opt rw_ratio_bench.py --binary-path rw_ratio_bench-X86 --isa X86 --sq-size 1 --lq-size 128 --write-ratio 25

info: Standard input is not a terminal, disabling listeners.
Parameters:
  binary-path: rw_ratio_bench-X86
  write-ratio: 25
  isa: X86
  rob-size: 512
  lq-size: 128
  sq-size: 1
Running the simulation
Using O3 cpu
src/sim/syscall_emul.cc:86: warn: ignoring syscall set_robust_list(...)
src/sim/syscall_emul.cc:86: warn: ignoring syscall rseq(...)
src/sim/mem_state.cc:443: info: Increasing stack size by one page.
src/sim/syscall_emul.hh:1127: warn: readlink() called on '/proc/self/exe' may yield unexpected results in various settings.
      Returning '/media/shafin/secondary/CXL-consistency-tax/rw_ratio_bench-X86'
src/sim/syscall_emul.cc:86: warn: ignoring syscall mprotect(...)
elements=1000000 ops=100000 write_ratio=25 seed=1
elapsed=0.012512 s
read_ops=74821 (5.980 Mop/s)
write_ops=25179 (2.012 Mop/s)
total_ops=100000 (7.992 Mop/s)
read_sum=11542828953556803800
write_sum=13284600926069978378
All simulation events were successful.
Done with the simulation after 97.01 seconds of wall clock time!
Running with ISA=ARM, SQ/LQ size=128, write-ratio=75
Global frequency set at 1000000000000 ticks per second
warn: rounding error > tolerance
    29.103830 rounded to 29
warn: rounding error > tolerance
    29.103830 rounded to 29
warn: No dot file generated. Please install pydot to generate the dot file and pdf.
warn: rounding error > tolerance
    29.103830 rounded to 29
src/base/statistics.hh:279: warn: One of the stats is a legacy stat. Legacy stat is a stat that does not belong to any statistics::Group. Legacy stat is deprecated.
src/base/stats/storage.hh:278: warn: Bucket size (4) does not divide range [1:32] into equal-sized buckets. Rounding up.
src/base/stats/storage.hh:278: warn: Bucket size (4) does not divide range [1:8] into equal-sized buckets. Rounding up.
src/base/remote_gdb.cc:418: warn: Sockets disabled, not accepting gdb connections
gem5 Simulator System.  https://www.gem5.org
gem5 is copyrighted software; use the --copyright option for details.

gem5 version 25.1.0.0
gem5 compiled Apr  9 2026 07:51:36
gem5 started Apr 18 2026 04:14:11
gem5 executing on shafin-HP-Laptop-14s-fq1786, pid 710880
command line: ./gem5/build/ALL/gem5.opt rw_ratio_bench.py --binary-path rw_ratio_bench-ARM --isa ARM --sq-size 1 --lq-size 128 --write-ratio 75

info: Standard input is not a terminal, disabling listeners.
Parameters:
  binary-path: rw_ratio_bench-ARM
  write-ratio: 75
  isa: ARM
  rob-size: 512
  lq-size: 128
  sq-size: 1
Running the simulation
Using O3 cpu
src/arch/arm/insts/pseudo.cc:174: warn: 	instruction 'bti' unimplemented
src/sim/syscall_emul.cc:86: warn: ignoring syscall set_robust_list(...)
src/sim/syscall_emul.cc:97: warn: ignoring syscall rseq(...)
      (further warnings will be suppressed)
src/sim/mem_state.cc:443: info: Increasing stack size by one page.
src/sim/syscall_emul.hh:1127: warn: readlink() called on '/proc/self/exe' may yield unexpected results in various settings.
      Returning '/media/shafin/secondary/CXL-consistency-tax/rw_ratio_bench-ARM'
src/sim/syscall_emul.cc:86: warn: ignoring syscall mprotect(...)
src/arch/arm/insts/pseudo.cc:174: warn: 	instruction 'unallocated_hint' unimplemented
src/arch/arm/insts/pseudo.cc:174: warn: 	instruction 'bti' unimplemented
src/sim/syscall_emul.hh:816: warn: Unsupported ioctl call (return ENOTTY): ioctl(1, 0x802c542a, ...) @ (0x442c5c=>0x442c60).(0=>1)
elements=1000000 ops=100000 write_ratio=75 seed=1
elapsed=0.019434 s
read_ops=24945 (1.284 Mop/s)
write_ops=75055 (3.862 Mop/s)
total_ops=100000 (5.145 Mop/s)
read_sum=10608295516379971852
write_sum=17130558444781473672
All simulation events were successful.
Done with the simulation after 93.84 seconds of wall clock time!
Running with ISA=X86, SQ/LQ size=128, write-ratio=75
Global frequency set at 1000000000000 ticks per second
warn: rounding error > tolerance
    29.103830 rounded to 29
warn: rounding error > tolerance
    29.103830 rounded to 29
warn: No dot file generated. Please install pydot to generate the dot file and pdf.
warn: rounding error > tolerance
    29.103830 rounded to 29
src/base/statistics.hh:279: warn: One of the stats is a legacy stat. Legacy stat is a stat that does not belong to any statistics::Group. Legacy stat is deprecated.
src/base/stats/storage.hh:278: warn: Bucket size (4) does not divide range [1:32] into equal-sized buckets. Rounding up.
src/base/stats/storage.hh:278: warn: Bucket size (4) does not divide range [1:8] into equal-sized buckets. Rounding up.
src/base/remote_gdb.cc:418: warn: Sockets disabled, not accepting gdb connections
gem5 Simulator System.  https://www.gem5.org
gem5 is copyrighted software; use the --copyright option for details.

gem5 version 25.1.0.0
gem5 compiled Apr  9 2026 07:51:36
gem5 started Apr 18 2026 04:15:46
gem5 executing on shafin-HP-Laptop-14s-fq1786, pid 711698
command line: ./gem5/build/ALL/gem5.opt rw_ratio_bench.py --binary-path rw_ratio_bench-X86 --isa X86 --sq-size 1 --lq-size 128 --write-ratio 75

info: Standard input is not a terminal, disabling listeners.
Parameters:
  binary-path: rw_ratio_bench-X86
  write-ratio: 75
  isa: X86
  rob-size: 512
  lq-size: 128
  sq-size: 1
Running the simulation
Using O3 cpu
src/sim/syscall_emul.cc:86: warn: ignoring syscall set_robust_list(...)
src/sim/syscall_emul.cc:86: warn: ignoring syscall rseq(...)
src/sim/mem_state.cc:443: info: Increasing stack size by one page.
src/sim/syscall_emul.hh:1127: warn: readlink() called on '/proc/self/exe' may yield unexpected results in various settings.
      Returning '/media/shafin/secondary/CXL-consistency-tax/rw_ratio_bench-X86'
src/sim/syscall_emul.cc:86: warn: ignoring syscall mprotect(...)
elements=1000000 ops=100000 write_ratio=75 seed=1
elapsed=0.019155 s
read_ops=24945 (1.302 Mop/s)
write_ops=75055 (3.918 Mop/s)
total_ops=100000 (5.221 Mop/s)
read_sum=10608295516379971852
write_sum=17130558444781473672
All simulation events were successful.
Done with the simulation after 116.28 seconds of wall clock time!
Running with ISA=ARM, SQ/LQ size=128, write-ratio=0
Global frequency set at 1000000000000 ticks per second
warn: rounding error > tolerance
    29.103830 rounded to 29
warn: rounding error > tolerance
    29.103830 rounded to 29
warn: No dot file generated. Please install pydot to generate the dot file and pdf.
warn: rounding error > tolerance
    29.103830 rounded to 29
src/base/statistics.hh:279: warn: One of the stats is a legacy stat. Legacy stat is a stat that does not belong to any statistics::Group. Legacy stat is deprecated.
src/base/stats/storage.hh:278: warn: Bucket size (4) does not divide range [1:32] into equal-sized buckets. Rounding up.
src/base/stats/storage.hh:278: warn: Bucket size (4) does not divide range [1:8] into equal-sized buckets. Rounding up.
src/base/remote_gdb.cc:418: warn: Sockets disabled, not accepting gdb connections
gem5 Simulator System.  https://www.gem5.org
gem5 is copyrighted software; use the --copyright option for details.

gem5 version 25.1.0.0
gem5 compiled Apr  9 2026 07:51:36
gem5 started Apr 18 2026 04:17:43
gem5 executing on shafin-HP-Laptop-14s-fq1786, pid 712419
command line: ./gem5/build/ALL/gem5.opt rw_ratio_bench.py --binary-path rw_ratio_bench-ARM --isa ARM --sq-size 1 --lq-size 128 --write-ratio 0

info: Standard input is not a terminal, disabling listeners.
Parameters:
  binary-path: rw_ratio_bench-ARM
  write-ratio: 0
  isa: ARM
  rob-size: 512
  lq-size: 128
  sq-size: 1
Running the simulation
Using O3 cpu
src/arch/arm/insts/pseudo.cc:174: warn: 	instruction 'bti' unimplemented
src/sim/syscall_emul.cc:86: warn: ignoring syscall set_robust_list(...)
src/sim/syscall_emul.cc:97: warn: ignoring syscall rseq(...)
      (further warnings will be suppressed)
src/sim/mem_state.cc:443: info: Increasing stack size by one page.
src/sim/syscall_emul.hh:1127: warn: readlink() called on '/proc/self/exe' may yield unexpected results in various settings.
      Returning '/media/shafin/secondary/CXL-consistency-tax/rw_ratio_bench-ARM'
src/sim/syscall_emul.cc:86: warn: ignoring syscall mprotect(...)
src/arch/arm/insts/pseudo.cc:174: warn: 	instruction 'unallocated_hint' unimplemented
src/arch/arm/insts/pseudo.cc:174: warn: 	instruction 'bti' unimplemented
src/sim/syscall_emul.hh:816: warn: Unsupported ioctl call (return ENOTTY): ioctl(1, 0x802c542a, ...) @ (0x442c5c=>0x442c60).(0=>1)
elements=1000000 ops=100000 write_ratio=0 seed=1
elapsed=0.002659 s
read_ops=100000 (37.610 Mop/s)
write_ops=0 (0.000 Mop/s)
total_ops=100000 (37.610 Mop/s)
read_sum=7357944832993073577
write_sum=0
All simulation events were successful.
Done with the simulation after 46.26 seconds of wall clock time!
Running with ISA=X86, SQ/LQ size=128, write-ratio=0
Global frequency set at 1000000000000 ticks per second
warn: rounding error > tolerance
    29.103830 rounded to 29
warn: rounding error > tolerance
    29.103830 rounded to 29
warn: No dot file generated. Please install pydot to generate the dot file and pdf.
warn: rounding error > tolerance
    29.103830 rounded to 29
src/base/statistics.hh:279: warn: One of the stats is a legacy stat. Legacy stat is a stat that does not belong to any statistics::Group. Legacy stat is deprecated.
src/base/stats/storage.hh:278: warn: Bucket size (4) does not divide range [1:32] into equal-sized buckets. Rounding up.
src/base/stats/storage.hh:278: warn: Bucket size (4) does not divide range [1:8] into equal-sized buckets. Rounding up.
src/base/remote_gdb.cc:418: warn: Sockets disabled, not accepting gdb connections
gem5 Simulator System.  https://www.gem5.org
gem5 is copyrighted software; use the --copyright option for details.

gem5 version 25.1.0.0
gem5 compiled Apr  9 2026 07:51:36
gem5 started Apr 18 2026 04:18:30
gem5 executing on shafin-HP-Laptop-14s-fq1786, pid 713168
command line: ./gem5/build/ALL/gem5.opt rw_ratio_bench.py --binary-path rw_ratio_bench-X86 --isa X86 --sq-size 1 --lq-size 128 --write-ratio 0

info: Standard input is not a terminal, disabling listeners.
Parameters:
  binary-path: rw_ratio_bench-X86
  write-ratio: 0
  isa: X86
  rob-size: 512
  lq-size: 128
  sq-size: 1
Running the simulation
Using O3 cpu
src/sim/syscall_emul.cc:86: warn: ignoring syscall set_robust_list(...)
src/sim/syscall_emul.cc:86: warn: ignoring syscall rseq(...)
src/sim/mem_state.cc:443: info: Increasing stack size by one page.
src/sim/syscall_emul.hh:1127: warn: readlink() called on '/proc/self/exe' may yield unexpected results in various settings.
      Returning '/media/shafin/secondary/CXL-consistency-tax/rw_ratio_bench-X86'
src/sim/syscall_emul.cc:86: warn: ignoring syscall mprotect(...)
elements=1000000 ops=100000 write_ratio=0 seed=1
elapsed=0.013098 s
read_ops=100000 (7.634 Mop/s)
write_ops=0 (0.000 Mop/s)
total_ops=100000 (7.634 Mop/s)
read_sum=7357944832993073577
write_sum=0
All simulation events were successful.
Done with the simulation after 97.37 seconds of wall clock time!
Running with ISA=ARM, SQ/LQ size=128, write-ratio=100
Global frequency set at 1000000000000 ticks per second
warn: rounding error > tolerance
    29.103830 rounded to 29
warn: rounding error > tolerance
    29.103830 rounded to 29
warn: No dot file generated. Please install pydot to generate the dot file and pdf.
warn: rounding error > tolerance
    29.103830 rounded to 29
src/base/statistics.hh:279: warn: One of the stats is a legacy stat. Legacy stat is a stat that does not belong to any statistics::Group. Legacy stat is deprecated.
src/base/stats/storage.hh:278: warn: Bucket size (4) does not divide range [1:32] into equal-sized buckets. Rounding up.
src/base/stats/storage.hh:278: warn: Bucket size (4) does not divide range [1:8] into equal-sized buckets. Rounding up.
src/base/remote_gdb.cc:418: warn: Sockets disabled, not accepting gdb connections
gem5 Simulator System.  https://www.gem5.org
gem5 is copyrighted software; use the --copyright option for details.

gem5 version 25.1.0.0
gem5 compiled Apr  9 2026 07:51:36
gem5 started Apr 18 2026 04:20:08
gem5 executing on shafin-HP-Laptop-14s-fq1786, pid 714700
command line: ./gem5/build/ALL/gem5.opt rw_ratio_bench.py --binary-path rw_ratio_bench-ARM --isa ARM --sq-size 1 --lq-size 128 --write-ratio 100

info: Standard input is not a terminal, disabling listeners.
Parameters:
  binary-path: rw_ratio_bench-ARM
  write-ratio: 100
  isa: ARM
  rob-size: 512
  lq-size: 128
  sq-size: 1
Running the simulation
Using O3 cpu
src/arch/arm/insts/pseudo.cc:174: warn: 	instruction 'bti' unimplemented
src/sim/syscall_emul.cc:86: warn: ignoring syscall set_robust_list(...)
src/sim/syscall_emul.cc:97: warn: ignoring syscall rseq(...)
      (further warnings will be suppressed)
src/sim/mem_state.cc:443: info: Increasing stack size by one page.
src/sim/syscall_emul.hh:1127: warn: readlink() called on '/proc/self/exe' may yield unexpected results in various settings.
      Returning '/media/shafin/secondary/CXL-consistency-tax/rw_ratio_bench-ARM'
src/sim/syscall_emul.cc:86: warn: ignoring syscall mprotect(...)
src/arch/arm/insts/pseudo.cc:174: warn: 	instruction 'unallocated_hint' unimplemented
src/arch/arm/insts/pseudo.cc:174: warn: 	instruction 'bti' unimplemented
src/sim/syscall_emul.hh:816: warn: Unsupported ioctl call (return ENOTTY): ioctl(1, 0x802c542a, ...) @ (0x442c5c=>0x442c60).(0=>1)
elements=1000000 ops=100000 write_ratio=100 seed=1
elapsed=0.025623 s
read_ops=0 (0.000 Mop/s)
write_ops=100000 (3.903 Mop/s)
total_ops=100000 (3.903 Mop/s)
read_sum=0
write_sum=13585527720886067007
All simulation events were successful.
Done with the simulation after 113.75 seconds of wall clock time!
Running with ISA=X86, SQ/LQ size=128, write-ratio=100
Global frequency set at 1000000000000 ticks per second
warn: rounding error > tolerance
    29.103830 rounded to 29
warn: rounding error > tolerance
    29.103830 rounded to 29
warn: No dot file generated. Please install pydot to generate the dot file and pdf.
warn: rounding error > tolerance
    29.103830 rounded to 29
src/base/statistics.hh:279: warn: One of the stats is a legacy stat. Legacy stat is a stat that does not belong to any statistics::Group. Legacy stat is deprecated.
src/base/stats/storage.hh:278: warn: Bucket size (4) does not divide range [1:32] into equal-sized buckets. Rounding up.
src/base/stats/storage.hh:278: warn: Bucket size (4) does not divide range [1:8] into equal-sized buckets. Rounding up.
src/base/remote_gdb.cc:418: warn: Sockets disabled, not accepting gdb connections
gem5 Simulator System.  https://www.gem5.org
gem5 is copyrighted software; use the --copyright option for details.

gem5 version 25.1.0.0
gem5 compiled Apr  9 2026 07:51:36
gem5 started Apr 18 2026 04:22:02
gem5 executing on shafin-HP-Laptop-14s-fq1786, pid 715858
command line: ./gem5/build/ALL/gem5.opt rw_ratio_bench.py --binary-path rw_ratio_bench-X86 --isa X86 --sq-size 1 --lq-size 128 --write-ratio 100

info: Standard input is not a terminal, disabling listeners.
Parameters:
  binary-path: rw_ratio_bench-X86
  write-ratio: 100
  isa: X86
  rob-size: 512
  lq-size: 128
  sq-size: 1
Running the simulation
Using O3 cpu
src/sim/syscall_emul.cc:86: warn: ignoring syscall set_robust_list(...)
src/sim/syscall_emul.cc:86: warn: ignoring syscall rseq(...)
src/sim/mem_state.cc:443: info: Increasing stack size by one page.
src/sim/syscall_emul.hh:1127: warn: readlink() called on '/proc/self/exe' may yield unexpected results in various settings.
      Returning '/media/shafin/secondary/CXL-consistency-tax/rw_ratio_bench-X86'
src/sim/syscall_emul.cc:86: warn: ignoring syscall mprotect(...)
elements=1000000 ops=100000 write_ratio=100 seed=1
elapsed=0.025625 s
read_ops=0 (0.000 Mop/s)
write_ops=100000 (3.902 Mop/s)
total_ops=100000 (3.902 Mop/s)
read_sum=0
write_sum=13585527720886067007
All simulation events were successful.
Done with the simulation after 135.11 seconds of wall clock time!
