Running with ISA=ARM, SQ size=8, LQ size=8, write-ratio=50
Global frequency set at 1000000000000 ticks per second
warn: rounding error > tolerance
    29.103830 rounded to 29
warn: rounding error > tolerance
    29.103830 rounded to 29
warn: No dot file generated. Please install pydot to generate the dot file and pdf.
warn: rounding error > tolerance
    29.103830 rounded to 29
src/base/statistics.hh:279: warn: One of the stats is a legacy stat. Legacy stat is a stat that does not belong to any statistics::Group. Legacy stat is deprecated.
src/base/stats/storage.hh:278: warn: Bucket size (4) does not divide range [1:32] into equal-sized buckets. Rounding up.
src/base/stats/storage.hh:278: warn: Bucket size (4) does not divide range [1:8] into equal-sized buckets. Rounding up.
src/base/remote_gdb.cc:418: warn: Sockets disabled, not accepting gdb connections
gem5 Simulator System.  https://www.gem5.org
gem5 is copyrighted software; use the --copyright option for details.

gem5 version 25.1.0.0
gem5 compiled Apr 19 2026 20:34:35
gem5 started Apr 20 2026 13:50:42
gem5 executing on shafin-HP-Laptop-14s-fq1786, pid 36874
command line: ./gem5/build/ALL/gem5.opt rw_ratio_bench.py --binary-path rw_ratio_bench-ARM --isa ARM --sq-size 8 --lq-size 8 --write-ratio 50

info: Standard input is not a terminal, disabling listeners.
Parameters:
  binary-path: rw_ratio_bench-ARM
  write-ratio: 50
  isa: ARM
  rob-size: 512
  lq-size: 8
  sq-size: 8
Running the simulation
Using O3 cpu
src/arch/arm/insts/pseudo.cc:174: warn: 	instruction 'bti' unimplemented
src/sim/syscall_emul.cc:86: warn: ignoring syscall set_robust_list(...)
src/sim/syscall_emul.cc:97: warn: ignoring syscall rseq(...)
      (further warnings will be suppressed)
src/sim/mem_state.cc:443: info: Increasing stack size by one page.
src/sim/syscall_emul.hh:1127: warn: readlink() called on '/proc/self/exe' may yield unexpected results in various settings.
      Returning '/media/shafin/secondary/CXL-consistency-tax/rw_ratio_bench-ARM'
src/sim/syscall_emul.cc:86: warn: ignoring syscall mprotect(...)
src/arch/arm/insts/pseudo.cc:174: warn: 	instruction 'unallocated_hint' unimplemented
src/arch/arm/insts/pseudo.cc:174: warn: 	instruction 'bti' unimplemented
src/sim/syscall_emul.hh:816: warn: Unsupported ioctl call (return ENOTTY): ioctl(1, 0x802c542a, ...) @ (0x442bdc=>0x442be0).(0=>1)
elements=1000000 ops=100000 write_ratio=50 seed=1 memory_order=relaxed
elapsed=0.014639 s
read_ops=49841 (3.405 Mop/s)
write_ops=50159 (3.426 Mop/s)
total_ops=100000 (6.831 Mop/s)
read_sum=15965012528706635466
write_sum=15127924039229570755
All simulation events were successful.
Done with the simulation after 57.37 seconds of wall clock time!
Running with ISA=ARM, SQ size=16, LQ size=16, write-ratio=50
Global frequency set at 1000000000000 ticks per second
warn: rounding error > tolerance
    29.103830 rounded to 29
warn: rounding error > tolerance
    29.103830 rounded to 29
warn: No dot file generated. Please install pydot to generate the dot file and pdf.
warn: rounding error > tolerance
    29.103830 rounded to 29
src/base/statistics.hh:279: warn: One of the stats is a legacy stat. Legacy stat is a stat that does not belong to any statistics::Group. Legacy stat is deprecated.
src/base/stats/storage.hh:278: warn: Bucket size (4) does not divide range [1:32] into equal-sized buckets. Rounding up.
src/base/stats/storage.hh:278: warn: Bucket size (4) does not divide range [1:8] into equal-sized buckets. Rounding up.
src/base/remote_gdb.cc:418: warn: Sockets disabled, not accepting gdb connections
gem5 Simulator System.  https://www.gem5.org
gem5 is copyrighted software; use the --copyright option for details.

gem5 version 25.1.0.0
gem5 compiled Apr 19 2026 20:34:35
gem5 started Apr 20 2026 13:51:40
gem5 executing on shafin-HP-Laptop-14s-fq1786, pid 37240
command line: ./gem5/build/ALL/gem5.opt rw_ratio_bench.py --binary-path rw_ratio_bench-ARM --isa ARM --sq-size 16 --lq-size 16 --write-ratio 50

info: Standard input is not a terminal, disabling listeners.
Parameters:
  binary-path: rw_ratio_bench-ARM
  write-ratio: 50
  isa: ARM
  rob-size: 512
  lq-size: 16
  sq-size: 16
Running the simulation
Using O3 cpu
src/arch/arm/insts/pseudo.cc:174: warn: 	instruction 'bti' unimplemented
src/sim/syscall_emul.cc:86: warn: ignoring syscall set_robust_list(...)
src/sim/syscall_emul.cc:97: warn: ignoring syscall rseq(...)
      (further warnings will be suppressed)
src/sim/mem_state.cc:443: info: Increasing stack size by one page.
src/sim/syscall_emul.hh:1127: warn: readlink() called on '/proc/self/exe' may yield unexpected results in various settings.
      Returning '/media/shafin/secondary/CXL-consistency-tax/rw_ratio_bench-ARM'
src/sim/syscall_emul.cc:86: warn: ignoring syscall mprotect(...)
src/arch/arm/insts/pseudo.cc:174: warn: 	instruction 'unallocated_hint' unimplemented
src/arch/arm/insts/pseudo.cc:174: warn: 	instruction 'bti' unimplemented
src/sim/syscall_emul.hh:816: warn: Unsupported ioctl call (return ENOTTY): ioctl(1, 0x802c542a, ...) @ (0x442bdc=>0x442be0).(0=>1)
elements=1000000 ops=100000 write_ratio=50 seed=1 memory_order=relaxed
elapsed=0.012875 s
read_ops=49841 (3.871 Mop/s)
write_ops=50159 (3.896 Mop/s)
total_ops=100000 (7.767 Mop/s)
read_sum=15965012528706635466
write_sum=15127924039229570755
All simulation events were successful.
Done with the simulation after 50.02 seconds of wall clock time!
Running with ISA=ARM, SQ size=32, LQ size=32, write-ratio=50
Global frequency set at 1000000000000 ticks per second
warn: rounding error > tolerance
    29.103830 rounded to 29
warn: rounding error > tolerance
    29.103830 rounded to 29
warn: No dot file generated. Please install pydot to generate the dot file and pdf.
warn: rounding error > tolerance
    29.103830 rounded to 29
src/base/statistics.hh:279: warn: One of the stats is a legacy stat. Legacy stat is a stat that does not belong to any statistics::Group. Legacy stat is deprecated.
src/base/stats/storage.hh:278: warn: Bucket size (4) does not divide range [1:32] into equal-sized buckets. Rounding up.
src/base/stats/storage.hh:278: warn: Bucket size (4) does not divide range [1:8] into equal-sized buckets. Rounding up.
src/base/remote_gdb.cc:418: warn: Sockets disabled, not accepting gdb connections
gem5 Simulator System.  https://www.gem5.org
gem5 is copyrighted software; use the --copyright option for details.

gem5 version 25.1.0.0
gem5 compiled Apr 19 2026 20:34:35
gem5 started Apr 20 2026 13:52:31
gem5 executing on shafin-HP-Laptop-14s-fq1786, pid 37279
command line: ./gem5/build/ALL/gem5.opt rw_ratio_bench.py --binary-path rw_ratio_bench-ARM --isa ARM --sq-size 32 --lq-size 32 --write-ratio 50

info: Standard input is not a terminal, disabling listeners.
Parameters:
  binary-path: rw_ratio_bench-ARM
  write-ratio: 50
  isa: ARM
  rob-size: 512
  lq-size: 32
  sq-size: 32
Running the simulation
Using O3 cpu
src/arch/arm/insts/pseudo.cc:174: warn: 	instruction 'bti' unimplemented
src/sim/syscall_emul.cc:86: warn: ignoring syscall set_robust_list(...)
src/sim/syscall_emul.cc:97: warn: ignoring syscall rseq(...)
      (further warnings will be suppressed)
src/sim/mem_state.cc:443: info: Increasing stack size by one page.
src/sim/syscall_emul.hh:1127: warn: readlink() called on '/proc/self/exe' may yield unexpected results in various settings.
      Returning '/media/shafin/secondary/CXL-consistency-tax/rw_ratio_bench-ARM'
src/sim/syscall_emul.cc:86: warn: ignoring syscall mprotect(...)
src/arch/arm/insts/pseudo.cc:174: warn: 	instruction 'unallocated_hint' unimplemented
src/arch/arm/insts/pseudo.cc:174: warn: 	instruction 'bti' unimplemented
src/sim/syscall_emul.hh:816: warn: Unsupported ioctl call (return ENOTTY): ioctl(1, 0x802c542a, ...) @ (0x442bdc=>0x442be0).(0=>1)
elements=1000000 ops=100000 write_ratio=50 seed=1 memory_order=relaxed
elapsed=0.010606 s
read_ops=49841 (4.699 Mop/s)
write_ops=50159 (4.729 Mop/s)
total_ops=100000 (9.429 Mop/s)
read_sum=15965012528706635466
write_sum=15127924039229570755
All simulation events were successful.
Done with the simulation after 43.32 seconds of wall clock time!
Running with ISA=ARM, SQ size=64, LQ size=64, write-ratio=50
Global frequency set at 1000000000000 ticks per second
warn: rounding error > tolerance
    29.103830 rounded to 29
warn: rounding error > tolerance
    29.103830 rounded to 29
warn: No dot file generated. Please install pydot to generate the dot file and pdf.
warn: rounding error > tolerance
    29.103830 rounded to 29
src/base/statistics.hh:279: warn: One of the stats is a legacy stat. Legacy stat is a stat that does not belong to any statistics::Group. Legacy stat is deprecated.
src/base/stats/storage.hh:278: warn: Bucket size (4) does not divide range [1:32] into equal-sized buckets. Rounding up.
src/base/stats/storage.hh:278: warn: Bucket size (4) does not divide range [1:8] into equal-sized buckets. Rounding up.
src/base/remote_gdb.cc:418: warn: Sockets disabled, not accepting gdb connections
gem5 Simulator System.  https://www.gem5.org
gem5 is copyrighted software; use the --copyright option for details.

gem5 version 25.1.0.0
gem5 compiled Apr 19 2026 20:34:35
gem5 started Apr 20 2026 13:53:15
gem5 executing on shafin-HP-Laptop-14s-fq1786, pid 37314
command line: ./gem5/build/ALL/gem5.opt rw_ratio_bench.py --binary-path rw_ratio_bench-ARM --isa ARM --sq-size 64 --lq-size 64 --write-ratio 50

info: Standard input is not a terminal, disabling listeners.
Parameters:
  binary-path: rw_ratio_bench-ARM
  write-ratio: 50
  isa: ARM
  rob-size: 512
  lq-size: 64
  sq-size: 64
Running the simulation
Using O3 cpu
src/arch/arm/insts/pseudo.cc:174: warn: 	instruction 'bti' unimplemented
src/sim/syscall_emul.cc:86: warn: ignoring syscall set_robust_list(...)
src/sim/syscall_emul.cc:97: warn: ignoring syscall rseq(...)
      (further warnings will be suppressed)
src/sim/mem_state.cc:443: info: Increasing stack size by one page.
src/sim/syscall_emul.hh:1127: warn: readlink() called on '/proc/self/exe' may yield unexpected results in various settings.
      Returning '/media/shafin/secondary/CXL-consistency-tax/rw_ratio_bench-ARM'
src/sim/syscall_emul.cc:86: warn: ignoring syscall mprotect(...)
src/arch/arm/insts/pseudo.cc:174: warn: 	instruction 'unallocated_hint' unimplemented
src/arch/arm/insts/pseudo.cc:174: warn: 	instruction 'bti' unimplemented
src/sim/syscall_emul.hh:816: warn: Unsupported ioctl call (return ENOTTY): ioctl(1, 0x802c542a, ...) @ (0x442bdc=>0x442be0).(0=>1)
elements=1000000 ops=100000 write_ratio=50 seed=1 memory_order=relaxed
elapsed=0.010606 s
read_ops=49841 (4.699 Mop/s)
write_ops=50159 (4.729 Mop/s)
total_ops=100000 (9.429 Mop/s)
read_sum=15965012528706635466
write_sum=15127924039229570755
All simulation events were successful.
Done with the simulation after 43.18 seconds of wall clock time!
Running with ISA=ARM, SQ size=128, LQ size=128, write-ratio=50
Global frequency set at 1000000000000 ticks per second
warn: rounding error > tolerance
    29.103830 rounded to 29
warn: rounding error > tolerance
    29.103830 rounded to 29
warn: No dot file generated. Please install pydot to generate the dot file and pdf.
warn: rounding error > tolerance
    29.103830 rounded to 29
src/base/statistics.hh:279: warn: One of the stats is a legacy stat. Legacy stat is a stat that does not belong to any statistics::Group. Legacy stat is deprecated.
src/base/stats/storage.hh:278: warn: Bucket size (4) does not divide range [1:32] into equal-sized buckets. Rounding up.
src/base/stats/storage.hh:278: warn: Bucket size (4) does not divide range [1:8] into equal-sized buckets. Rounding up.
src/base/remote_gdb.cc:418: warn: Sockets disabled, not accepting gdb connections
gem5 Simulator System.  https://www.gem5.org
gem5 is copyrighted software; use the --copyright option for details.

gem5 version 25.1.0.0
gem5 compiled Apr 19 2026 20:34:35
gem5 started Apr 20 2026 13:53:59
gem5 executing on shafin-HP-Laptop-14s-fq1786, pid 37329
command line: ./gem5/build/ALL/gem5.opt rw_ratio_bench.py --binary-path rw_ratio_bench-ARM --isa ARM --sq-size 128 --lq-size 128 --write-ratio 50

info: Standard input is not a terminal, disabling listeners.
Parameters:
  binary-path: rw_ratio_bench-ARM
  write-ratio: 50
  isa: ARM
  rob-size: 512
  lq-size: 128
  sq-size: 128
Running the simulation
Using O3 cpu
src/arch/arm/insts/pseudo.cc:174: warn: 	instruction 'bti' unimplemented
src/sim/syscall_emul.cc:86: warn: ignoring syscall set_robust_list(...)
src/sim/syscall_emul.cc:97: warn: ignoring syscall rseq(...)
      (further warnings will be suppressed)
src/sim/mem_state.cc:443: info: Increasing stack size by one page.
src/sim/syscall_emul.hh:1127: warn: readlink() called on '/proc/self/exe' may yield unexpected results in various settings.
      Returning '/media/shafin/secondary/CXL-consistency-tax/rw_ratio_bench-ARM'
src/sim/syscall_emul.cc:86: warn: ignoring syscall mprotect(...)
src/arch/arm/insts/pseudo.cc:174: warn: 	instruction 'unallocated_hint' unimplemented
src/arch/arm/insts/pseudo.cc:174: warn: 	instruction 'bti' unimplemented
src/sim/syscall_emul.hh:816: warn: Unsupported ioctl call (return ENOTTY): ioctl(1, 0x802c542a, ...) @ (0x442bdc=>0x442be0).(0=>1)
elements=1000000 ops=100000 write_ratio=50 seed=1 memory_order=relaxed
elapsed=0.010606 s
read_ops=49841 (4.699 Mop/s)
write_ops=50159 (4.729 Mop/s)
total_ops=100000 (9.429 Mop/s)
read_sum=15965012528706635466
write_sum=15127924039229570755
All simulation events were successful.
Done with the simulation after 42.68 seconds of wall clock time!
Running with ISA=X86, SQ size=8, LQ size=8, write-ratio=50
Global frequency set at 1000000000000 ticks per second
warn: rounding error > tolerance
    29.103830 rounded to 29
warn: rounding error > tolerance
    29.103830 rounded to 29
warn: No dot file generated. Please install pydot to generate the dot file and pdf.
warn: rounding error > tolerance
    29.103830 rounded to 29
src/base/statistics.hh:279: warn: One of the stats is a legacy stat. Legacy stat is a stat that does not belong to any statistics::Group. Legacy stat is deprecated.
src/base/stats/storage.hh:278: warn: Bucket size (4) does not divide range [1:32] into equal-sized buckets. Rounding up.
src/base/stats/storage.hh:278: warn: Bucket size (4) does not divide range [1:8] into equal-sized buckets. Rounding up.
src/base/remote_gdb.cc:418: warn: Sockets disabled, not accepting gdb connections
gem5 Simulator System.  https://www.gem5.org
gem5 is copyrighted software; use the --copyright option for details.

gem5 version 25.1.0.0
gem5 compiled Apr 19 2026 20:34:35
gem5 started Apr 20 2026 13:54:42
gem5 executing on shafin-HP-Laptop-14s-fq1786, pid 37378
command line: ./gem5/build/ALL/gem5.opt rw_ratio_bench.py --binary-path rw_ratio_bench-X86 --isa X86 --sq-size 8 --lq-size 8 --write-ratio 50

info: Standard input is not a terminal, disabling listeners.
Parameters:
  binary-path: rw_ratio_bench-X86
  write-ratio: 50
  isa: X86
  rob-size: 512
  lq-size: 8
  sq-size: 8
Running the simulation
Using O3 cpu
src/sim/syscall_emul.cc:86: warn: ignoring syscall set_robust_list(...)
src/sim/syscall_emul.cc:86: warn: ignoring syscall rseq(...)
src/sim/mem_state.cc:443: info: Increasing stack size by one page.
src/sim/syscall_emul.hh:1127: warn: readlink() called on '/proc/self/exe' may yield unexpected results in various settings.
      Returning '/media/shafin/secondary/CXL-consistency-tax/rw_ratio_bench-X86'
src/sim/syscall_emul.cc:86: warn: ignoring syscall mprotect(...)
elements=1000000 ops=100000 write_ratio=50 seed=1 memory_order=relaxed
elapsed=0.015671 s
read_ops=49841 (3.180 Mop/s)
write_ops=50159 (3.201 Mop/s)
total_ops=100000 (6.381 Mop/s)
read_sum=15965012528706635466
write_sum=15127924039229570755
All simulation events were successful.
Done with the simulation after 74.59 seconds of wall clock time!
Running with ISA=X86, SQ size=16, LQ size=16, write-ratio=50
Global frequency set at 1000000000000 ticks per second
warn: rounding error > tolerance
    29.103830 rounded to 29
warn: rounding error > tolerance
    29.103830 rounded to 29
warn: No dot file generated. Please install pydot to generate the dot file and pdf.
warn: rounding error > tolerance
    29.103830 rounded to 29
src/base/statistics.hh:279: warn: One of the stats is a legacy stat. Legacy stat is a stat that does not belong to any statistics::Group. Legacy stat is deprecated.
src/base/stats/storage.hh:278: warn: Bucket size (4) does not divide range [1:32] into equal-sized buckets. Rounding up.
src/base/stats/storage.hh:278: warn: Bucket size (4) does not divide range [1:8] into equal-sized buckets. Rounding up.
src/base/remote_gdb.cc:418: warn: Sockets disabled, not accepting gdb connections
gem5 Simulator System.  https://www.gem5.org
gem5 is copyrighted software; use the --copyright option for details.

gem5 version 25.1.0.0
gem5 compiled Apr 19 2026 20:34:35
gem5 started Apr 20 2026 13:55:57
gem5 executing on shafin-HP-Laptop-14s-fq1786, pid 37531
command line: ./gem5/build/ALL/gem5.opt rw_ratio_bench.py --binary-path rw_ratio_bench-X86 --isa X86 --sq-size 16 --lq-size 16 --write-ratio 50

info: Standard input is not a terminal, disabling listeners.
Parameters:
  binary-path: rw_ratio_bench-X86
  write-ratio: 50
  isa: X86
  rob-size: 512
  lq-size: 16
  sq-size: 16
Running the simulation
Using O3 cpu
src/sim/syscall_emul.cc:86: warn: ignoring syscall set_robust_list(...)
src/sim/syscall_emul.cc:86: warn: ignoring syscall rseq(...)
src/sim/mem_state.cc:443: info: Increasing stack size by one page.
src/sim/syscall_emul.hh:1127: warn: readlink() called on '/proc/self/exe' may yield unexpected results in various settings.
      Returning '/media/shafin/secondary/CXL-consistency-tax/rw_ratio_bench-X86'
src/sim/syscall_emul.cc:86: warn: ignoring syscall mprotect(...)
elements=1000000 ops=100000 write_ratio=50 seed=1 memory_order=relaxed
elapsed=0.015671 s
read_ops=49841 (3.181 Mop/s)
write_ops=50159 (3.201 Mop/s)
total_ops=100000 (6.381 Mop/s)
read_sum=15965012528706635466
write_sum=15127924039229570755
All simulation events were successful.
Done with the simulation after 73.36 seconds of wall clock time!
Running with ISA=X86, SQ size=32, LQ size=32, write-ratio=50
Global frequency set at 1000000000000 ticks per second
warn: rounding error > tolerance
    29.103830 rounded to 29
warn: rounding error > tolerance
    29.103830 rounded to 29
warn: No dot file generated. Please install pydot to generate the dot file and pdf.
warn: rounding error > tolerance
    29.103830 rounded to 29
src/base/statistics.hh:279: warn: One of the stats is a legacy stat. Legacy stat is a stat that does not belong to any statistics::Group. Legacy stat is deprecated.
src/base/stats/storage.hh:278: warn: Bucket size (4) does not divide range [1:32] into equal-sized buckets. Rounding up.
src/base/stats/storage.hh:278: warn: Bucket size (4) does not divide range [1:8] into equal-sized buckets. Rounding up.
src/base/remote_gdb.cc:418: warn: Sockets disabled, not accepting gdb connections
gem5 Simulator System.  https://www.gem5.org
gem5 is copyrighted software; use the --copyright option for details.

gem5 version 25.1.0.0
gem5 compiled Apr 19 2026 20:34:35
gem5 started Apr 20 2026 13:57:12
gem5 executing on shafin-HP-Laptop-14s-fq1786, pid 37651
command line: ./gem5/build/ALL/gem5.opt rw_ratio_bench.py --binary-path rw_ratio_bench-X86 --isa X86 --sq-size 32 --lq-size 32 --write-ratio 50

info: Standard input is not a terminal, disabling listeners.
Parameters:
  binary-path: rw_ratio_bench-X86
  write-ratio: 50
  isa: X86
  rob-size: 512
  lq-size: 32
  sq-size: 32
Running the simulation
Using O3 cpu
src/sim/syscall_emul.cc:86: warn: ignoring syscall set_robust_list(...)
src/sim/syscall_emul.cc:86: warn: ignoring syscall rseq(...)
src/sim/mem_state.cc:443: info: Increasing stack size by one page.
src/sim/syscall_emul.hh:1127: warn: readlink() called on '/proc/self/exe' may yield unexpected results in various settings.
      Returning '/media/shafin/secondary/CXL-consistency-tax/rw_ratio_bench-X86'
src/sim/syscall_emul.cc:86: warn: ignoring syscall mprotect(...)
elements=1000000 ops=100000 write_ratio=50 seed=1 memory_order=relaxed
elapsed=0.015671 s
read_ops=49841 (3.181 Mop/s)
write_ops=50159 (3.201 Mop/s)
total_ops=100000 (6.381 Mop/s)
read_sum=15965012528706635466
write_sum=15127924039229570755
All simulation events were successful.
Done with the simulation after 71.30 seconds of wall clock time!
Running with ISA=X86, SQ size=64, LQ size=64, write-ratio=50
Global frequency set at 1000000000000 ticks per second
warn: rounding error > tolerance
    29.103830 rounded to 29
warn: rounding error > tolerance
    29.103830 rounded to 29
warn: No dot file generated. Please install pydot to generate the dot file and pdf.
warn: rounding error > tolerance
    29.103830 rounded to 29
src/base/statistics.hh:279: warn: One of the stats is a legacy stat. Legacy stat is a stat that does not belong to any statistics::Group. Legacy stat is deprecated.
src/base/stats/storage.hh:278: warn: Bucket size (4) does not divide range [1:32] into equal-sized buckets. Rounding up.
src/base/stats/storage.hh:278: warn: Bucket size (4) does not divide range [1:8] into equal-sized buckets. Rounding up.
src/base/remote_gdb.cc:418: warn: Sockets disabled, not accepting gdb connections
gem5 Simulator System.  https://www.gem5.org
gem5 is copyrighted software; use the --copyright option for details.

gem5 version 25.1.0.0
gem5 compiled Apr 19 2026 20:34:35
gem5 started Apr 20 2026 13:58:24
gem5 executing on shafin-HP-Laptop-14s-fq1786, pid 37721
command line: ./gem5/build/ALL/gem5.opt rw_ratio_bench.py --binary-path rw_ratio_bench-X86 --isa X86 --sq-size 64 --lq-size 64 --write-ratio 50

info: Standard input is not a terminal, disabling listeners.
Parameters:
  binary-path: rw_ratio_bench-X86
  write-ratio: 50
  isa: X86
  rob-size: 512
  lq-size: 64
  sq-size: 64
Running the simulation
Using O3 cpu
src/sim/syscall_emul.cc:86: warn: ignoring syscall set_robust_list(...)
src/sim/syscall_emul.cc:86: warn: ignoring syscall rseq(...)
src/sim/mem_state.cc:443: info: Increasing stack size by one page.
src/sim/syscall_emul.hh:1127: warn: readlink() called on '/proc/self/exe' may yield unexpected results in various settings.
      Returning '/media/shafin/secondary/CXL-consistency-tax/rw_ratio_bench-X86'
src/sim/syscall_emul.cc:86: warn: ignoring syscall mprotect(...)
elements=1000000 ops=100000 write_ratio=50 seed=1 memory_order=relaxed
elapsed=0.015671 s
read_ops=49841 (3.181 Mop/s)
write_ops=50159 (3.201 Mop/s)
total_ops=100000 (6.381 Mop/s)
read_sum=15965012528706635466
write_sum=15127924039229570755
All simulation events were successful.
Done with the simulation after 71.89 seconds of wall clock time!
Running with ISA=X86, SQ size=128, LQ size=128, write-ratio=50
Global frequency set at 1000000000000 ticks per second
warn: rounding error > tolerance
    29.103830 rounded to 29
warn: rounding error > tolerance
    29.103830 rounded to 29
warn: No dot file generated. Please install pydot to generate the dot file and pdf.
warn: rounding error > tolerance
    29.103830 rounded to 29
src/base/statistics.hh:279: warn: One of the stats is a legacy stat. Legacy stat is a stat that does not belong to any statistics::Group. Legacy stat is deprecated.
src/base/stats/storage.hh:278: warn: Bucket size (4) does not divide range [1:32] into equal-sized buckets. Rounding up.
src/base/stats/storage.hh:278: warn: Bucket size (4) does not divide range [1:8] into equal-sized buckets. Rounding up.
src/base/remote_gdb.cc:418: warn: Sockets disabled, not accepting gdb connections
gem5 Simulator System.  https://www.gem5.org
gem5 is copyrighted software; use the --copyright option for details.

gem5 version 25.1.0.0
gem5 compiled Apr 19 2026 20:34:35
gem5 started Apr 20 2026 13:59:36
gem5 executing on shafin-HP-Laptop-14s-fq1786, pid 37927
command line: ./gem5/build/ALL/gem5.opt rw_ratio_bench.py --binary-path rw_ratio_bench-X86 --isa X86 --sq-size 128 --lq-size 128 --write-ratio 50

info: Standard input is not a terminal, disabling listeners.
Parameters:
  binary-path: rw_ratio_bench-X86
  write-ratio: 50
  isa: X86
  rob-size: 512
  lq-size: 128
  sq-size: 128
Running the simulation
Using O3 cpu
src/sim/syscall_emul.cc:86: warn: ignoring syscall set_robust_list(...)
src/sim/syscall_emul.cc:86: warn: ignoring syscall rseq(...)
src/sim/mem_state.cc:443: info: Increasing stack size by one page.
src/sim/syscall_emul.hh:1127: warn: readlink() called on '/proc/self/exe' may yield unexpected results in various settings.
      Returning '/media/shafin/secondary/CXL-consistency-tax/rw_ratio_bench-X86'
src/sim/syscall_emul.cc:86: warn: ignoring syscall mprotect(...)
elements=1000000 ops=100000 write_ratio=50 seed=1 memory_order=relaxed
elapsed=0.015671 s
read_ops=49841 (3.181 Mop/s)
write_ops=50159 (3.201 Mop/s)
total_ops=100000 (6.381 Mop/s)
read_sum=15965012528706635466
write_sum=15127924039229570755
All simulation events were successful.
Done with the simulation after 72.89 seconds of wall clock time!
Running with ISA=ARM, SQ size=8, LQ size=8, write-ratio=0
Global frequency set at 1000000000000 ticks per second
warn: rounding error > tolerance
    29.103830 rounded to 29
warn: rounding error > tolerance
    29.103830 rounded to 29
warn: No dot file generated. Please install pydot to generate the dot file and pdf.
warn: rounding error > tolerance
    29.103830 rounded to 29
src/base/statistics.hh:279: warn: One of the stats is a legacy stat. Legacy stat is a stat that does not belong to any statistics::Group. Legacy stat is deprecated.
src/base/stats/storage.hh:278: warn: Bucket size (4) does not divide range [1:32] into equal-sized buckets. Rounding up.
src/base/stats/storage.hh:278: warn: Bucket size (4) does not divide range [1:8] into equal-sized buckets. Rounding up.
src/base/remote_gdb.cc:418: warn: Sockets disabled, not accepting gdb connections
gem5 Simulator System.  https://www.gem5.org
gem5 is copyrighted software; use the --copyright option for details.

gem5 version 25.1.0.0
gem5 compiled Apr 19 2026 20:34:35
gem5 started Apr 20 2026 14:00:50
gem5 executing on shafin-HP-Laptop-14s-fq1786, pid 38022
command line: ./gem5/build/ALL/gem5.opt rw_ratio_bench.py --binary-path rw_ratio_bench-ARM --isa ARM --sq-size 8 --lq-size 8 --write-ratio 0

info: Standard input is not a terminal, disabling listeners.
Parameters:
  binary-path: rw_ratio_bench-ARM
  write-ratio: 0
  isa: ARM
  rob-size: 512
  lq-size: 8
  sq-size: 8
Running the simulation
Using O3 cpu
src/arch/arm/insts/pseudo.cc:174: warn: 	instruction 'bti' unimplemented
src/sim/syscall_emul.cc:86: warn: ignoring syscall set_robust_list(...)
src/sim/syscall_emul.cc:97: warn: ignoring syscall rseq(...)
      (further warnings will be suppressed)
src/sim/mem_state.cc:443: info: Increasing stack size by one page.
src/sim/syscall_emul.hh:1127: warn: readlink() called on '/proc/self/exe' may yield unexpected results in various settings.
      Returning '/media/shafin/secondary/CXL-consistency-tax/rw_ratio_bench-ARM'
src/sim/syscall_emul.cc:86: warn: ignoring syscall mprotect(...)
src/arch/arm/insts/pseudo.cc:174: warn: 	instruction 'unallocated_hint' unimplemented
src/arch/arm/insts/pseudo.cc:174: warn: 	instruction 'bti' unimplemented
src/sim/syscall_emul.hh:816: warn: Unsupported ioctl call (return ENOTTY): ioctl(1, 0x802c542a, ...) @ (0x442bdc=>0x442be0).(0=>1)
elements=1000000 ops=100000 write_ratio=0 seed=1 memory_order=relaxed
elapsed=0.008821 s
read_ops=100000 (11.336 Mop/s)
write_ops=0 (0.000 Mop/s)
total_ops=100000 (11.336 Mop/s)
read_sum=0
write_sum=0
All simulation events were successful.
Done with the simulation after 31.63 seconds of wall clock time!
Running with ISA=ARM, SQ size=16, LQ size=16, write-ratio=0
Global frequency set at 1000000000000 ticks per second
warn: rounding error > tolerance
    29.103830 rounded to 29
warn: rounding error > tolerance
    29.103830 rounded to 29
warn: No dot file generated. Please install pydot to generate the dot file and pdf.
warn: rounding error > tolerance
    29.103830 rounded to 29
src/base/statistics.hh:279: warn: One of the stats is a legacy stat. Legacy stat is a stat that does not belong to any statistics::Group. Legacy stat is deprecated.
src/base/stats/storage.hh:278: warn: Bucket size (4) does not divide range [1:32] into equal-sized buckets. Rounding up.
src/base/stats/storage.hh:278: warn: Bucket size (4) does not divide range [1:8] into equal-sized buckets. Rounding up.
src/base/remote_gdb.cc:418: warn: Sockets disabled, not accepting gdb connections
gem5 Simulator System.  https://www.gem5.org
gem5 is copyrighted software; use the --copyright option for details.

gem5 version 25.1.0.0
gem5 compiled Apr 19 2026 20:34:35
gem5 started Apr 20 2026 14:01:22
gem5 executing on shafin-HP-Laptop-14s-fq1786, pid 38087
command line: ./gem5/build/ALL/gem5.opt rw_ratio_bench.py --binary-path rw_ratio_bench-ARM --isa ARM --sq-size 16 --lq-size 16 --write-ratio 0

info: Standard input is not a terminal, disabling listeners.
Parameters:
  binary-path: rw_ratio_bench-ARM
  write-ratio: 0
  isa: ARM
  rob-size: 512
  lq-size: 16
  sq-size: 16
Running the simulation
Using O3 cpu
src/arch/arm/insts/pseudo.cc:174: warn: 	instruction 'bti' unimplemented
src/sim/syscall_emul.cc:86: warn: ignoring syscall set_robust_list(...)
src/sim/syscall_emul.cc:97: warn: ignoring syscall rseq(...)
      (further warnings will be suppressed)
src/sim/mem_state.cc:443: info: Increasing stack size by one page.
src/sim/syscall_emul.hh:1127: warn: readlink() called on '/proc/self/exe' may yield unexpected results in various settings.
      Returning '/media/shafin/secondary/CXL-consistency-tax/rw_ratio_bench-ARM'
src/sim/syscall_emul.cc:86: warn: ignoring syscall mprotect(...)
src/arch/arm/insts/pseudo.cc:174: warn: 	instruction 'unallocated_hint' unimplemented
src/arch/arm/insts/pseudo.cc:174: warn: 	instruction 'bti' unimplemented
src/sim/syscall_emul.hh:816: warn: Unsupported ioctl call (return ENOTTY): ioctl(1, 0x802c542a, ...) @ (0x442bdc=>0x442be0).(0=>1)
elements=1000000 ops=100000 write_ratio=0 seed=1 memory_order=relaxed
elapsed=0.004799 s
read_ops=100000 (20.836 Mop/s)
write_ops=0 (0.000 Mop/s)
total_ops=100000 (20.836 Mop/s)
read_sum=0
write_sum=0
All simulation events were successful.
Done with the simulation after 19.90 seconds of wall clock time!
Running with ISA=ARM, SQ size=32, LQ size=32, write-ratio=0
Global frequency set at 1000000000000 ticks per second
warn: rounding error > tolerance
    29.103830 rounded to 29
warn: rounding error > tolerance
    29.103830 rounded to 29
warn: No dot file generated. Please install pydot to generate the dot file and pdf.
warn: rounding error > tolerance
    29.103830 rounded to 29
src/base/statistics.hh:279: warn: One of the stats is a legacy stat. Legacy stat is a stat that does not belong to any statistics::Group. Legacy stat is deprecated.
src/base/stats/storage.hh:278: warn: Bucket size (4) does not divide range [1:32] into equal-sized buckets. Rounding up.
src/base/stats/storage.hh:278: warn: Bucket size (4) does not divide range [1:8] into equal-sized buckets. Rounding up.
src/base/remote_gdb.cc:418: warn: Sockets disabled, not accepting gdb connections
gem5 Simulator System.  https://www.gem5.org
gem5 is copyrighted software; use the --copyright option for details.

gem5 version 25.1.0.0
gem5 compiled Apr 19 2026 20:34:35
gem5 started Apr 20 2026 14:01:43
gem5 executing on shafin-HP-Laptop-14s-fq1786, pid 38132
command line: ./gem5/build/ALL/gem5.opt rw_ratio_bench.py --binary-path rw_ratio_bench-ARM --isa ARM --sq-size 32 --lq-size 32 --write-ratio 0

info: Standard input is not a terminal, disabling listeners.
Parameters:
  binary-path: rw_ratio_bench-ARM
  write-ratio: 0
  isa: ARM
  rob-size: 512
  lq-size: 32
  sq-size: 32
Running the simulation
Using O3 cpu
src/arch/arm/insts/pseudo.cc:174: warn: 	instruction 'bti' unimplemented
src/sim/syscall_emul.cc:86: warn: ignoring syscall set_robust_list(...)
src/sim/syscall_emul.cc:97: warn: ignoring syscall rseq(...)
      (further warnings will be suppressed)
src/sim/mem_state.cc:443: info: Increasing stack size by one page.
src/sim/syscall_emul.hh:1127: warn: readlink() called on '/proc/self/exe' may yield unexpected results in various settings.
      Returning '/media/shafin/secondary/CXL-consistency-tax/rw_ratio_bench-ARM'
src/sim/syscall_emul.cc:86: warn: ignoring syscall mprotect(...)
src/arch/arm/insts/pseudo.cc:174: warn: 	instruction 'unallocated_hint' unimplemented
src/arch/arm/insts/pseudo.cc:174: warn: 	instruction 'bti' unimplemented
src/sim/syscall_emul.hh:816: warn: Unsupported ioctl call (return ENOTTY): ioctl(1, 0x802c542a, ...) @ (0x442bdc=>0x442be0).(0=>1)
elements=1000000 ops=100000 write_ratio=0 seed=1 memory_order=relaxed
elapsed=0.003057 s
read_ops=100000 (32.714 Mop/s)
write_ops=0 (0.000 Mop/s)
total_ops=100000 (32.714 Mop/s)
read_sum=0
write_sum=0
All simulation events were successful.
Done with the simulation after 15.61 seconds of wall clock time!
Running with ISA=ARM, SQ size=64, LQ size=64, write-ratio=0
Global frequency set at 1000000000000 ticks per second
warn: rounding error > tolerance
    29.103830 rounded to 29
warn: rounding error > tolerance
    29.103830 rounded to 29
warn: No dot file generated. Please install pydot to generate the dot file and pdf.
warn: rounding error > tolerance
    29.103830 rounded to 29
src/base/statistics.hh:279: warn: One of the stats is a legacy stat. Legacy stat is a stat that does not belong to any statistics::Group. Legacy stat is deprecated.
src/base/stats/storage.hh:278: warn: Bucket size (4) does not divide range [1:32] into equal-sized buckets. Rounding up.
src/base/stats/storage.hh:278: warn: Bucket size (4) does not divide range [1:8] into equal-sized buckets. Rounding up.
src/base/remote_gdb.cc:418: warn: Sockets disabled, not accepting gdb connections
gem5 Simulator System.  https://www.gem5.org
gem5 is copyrighted software; use the --copyright option for details.

gem5 version 25.1.0.0
gem5 compiled Apr 19 2026 20:34:35
gem5 started Apr 20 2026 14:01:59
gem5 executing on shafin-HP-Laptop-14s-fq1786, pid 38134
command line: ./gem5/build/ALL/gem5.opt rw_ratio_bench.py --binary-path rw_ratio_bench-ARM --isa ARM --sq-size 64 --lq-size 64 --write-ratio 0

info: Standard input is not a terminal, disabling listeners.
Parameters:
  binary-path: rw_ratio_bench-ARM
  write-ratio: 0
  isa: ARM
  rob-size: 512
  lq-size: 64
  sq-size: 64
Running the simulation
Using O3 cpu
src/arch/arm/insts/pseudo.cc:174: warn: 	instruction 'bti' unimplemented
src/sim/syscall_emul.cc:86: warn: ignoring syscall set_robust_list(...)
src/sim/syscall_emul.cc:97: warn: ignoring syscall rseq(...)
      (further warnings will be suppressed)
src/sim/mem_state.cc:443: info: Increasing stack size by one page.
src/sim/syscall_emul.hh:1127: warn: readlink() called on '/proc/self/exe' may yield unexpected results in various settings.
      Returning '/media/shafin/secondary/CXL-consistency-tax/rw_ratio_bench-ARM'
src/sim/syscall_emul.cc:86: warn: ignoring syscall mprotect(...)
src/arch/arm/insts/pseudo.cc:174: warn: 	instruction 'unallocated_hint' unimplemented
src/arch/arm/insts/pseudo.cc:174: warn: 	instruction 'bti' unimplemented
src/sim/syscall_emul.hh:816: warn: Unsupported ioctl call (return ENOTTY): ioctl(1, 0x802c542a, ...) @ (0x442bdc=>0x442be0).(0=>1)
elements=1000000 ops=100000 write_ratio=0 seed=1 memory_order=relaxed
elapsed=0.003057 s
read_ops=100000 (32.714 Mop/s)
write_ops=0 (0.000 Mop/s)
total_ops=100000 (32.714 Mop/s)
read_sum=0
write_sum=0
All simulation events were successful.
Done with the simulation after 15.95 seconds of wall clock time!
Running with ISA=ARM, SQ size=128, LQ size=128, write-ratio=0
Global frequency set at 1000000000000 ticks per second
warn: rounding error > tolerance
    29.103830 rounded to 29
warn: rounding error > tolerance
    29.103830 rounded to 29
warn: No dot file generated. Please install pydot to generate the dot file and pdf.
warn: rounding error > tolerance
    29.103830 rounded to 29
src/base/statistics.hh:279: warn: One of the stats is a legacy stat. Legacy stat is a stat that does not belong to any statistics::Group. Legacy stat is deprecated.
src/base/stats/storage.hh:278: warn: Bucket size (4) does not divide range [1:32] into equal-sized buckets. Rounding up.
src/base/stats/storage.hh:278: warn: Bucket size (4) does not divide range [1:8] into equal-sized buckets. Rounding up.
src/base/remote_gdb.cc:418: warn: Sockets disabled, not accepting gdb connections
gem5 Simulator System.  https://www.gem5.org
gem5 is copyrighted software; use the --copyright option for details.

gem5 version 25.1.0.0
gem5 compiled Apr 19 2026 20:34:35
gem5 started Apr 20 2026 14:02:16
gem5 executing on shafin-HP-Laptop-14s-fq1786, pid 38160
command line: ./gem5/build/ALL/gem5.opt rw_ratio_bench.py --binary-path rw_ratio_bench-ARM --isa ARM --sq-size 128 --lq-size 128 --write-ratio 0

info: Standard input is not a terminal, disabling listeners.
Parameters:
  binary-path: rw_ratio_bench-ARM
  write-ratio: 0
  isa: ARM
  rob-size: 512
  lq-size: 128
  sq-size: 128
Running the simulation
Using O3 cpu
src/arch/arm/insts/pseudo.cc:174: warn: 	instruction 'bti' unimplemented
src/sim/syscall_emul.cc:86: warn: ignoring syscall set_robust_list(...)
src/sim/syscall_emul.cc:97: warn: ignoring syscall rseq(...)
      (further warnings will be suppressed)
src/sim/mem_state.cc:443: info: Increasing stack size by one page.
src/sim/syscall_emul.hh:1127: warn: readlink() called on '/proc/self/exe' may yield unexpected results in various settings.
      Returning '/media/shafin/secondary/CXL-consistency-tax/rw_ratio_bench-ARM'
src/sim/syscall_emul.cc:86: warn: ignoring syscall mprotect(...)
src/arch/arm/insts/pseudo.cc:174: warn: 	instruction 'unallocated_hint' unimplemented
src/arch/arm/insts/pseudo.cc:174: warn: 	instruction 'bti' unimplemented
src/sim/syscall_emul.hh:816: warn: Unsupported ioctl call (return ENOTTY): ioctl(1, 0x802c542a, ...) @ (0x442bdc=>0x442be0).(0=>1)
elements=1000000 ops=100000 write_ratio=0 seed=1 memory_order=relaxed
elapsed=0.003057 s
read_ops=100000 (32.714 Mop/s)
write_ops=0 (0.000 Mop/s)
total_ops=100000 (32.714 Mop/s)
read_sum=0
write_sum=0
All simulation events were successful.
Done with the simulation after 15.87 seconds of wall clock time!
Running with ISA=X86, SQ size=8, LQ size=8, write-ratio=0
Global frequency set at 1000000000000 ticks per second
warn: rounding error > tolerance
    29.103830 rounded to 29
warn: rounding error > tolerance
    29.103830 rounded to 29
warn: No dot file generated. Please install pydot to generate the dot file and pdf.
warn: rounding error > tolerance
    29.103830 rounded to 29
src/base/statistics.hh:279: warn: One of the stats is a legacy stat. Legacy stat is a stat that does not belong to any statistics::Group. Legacy stat is deprecated.
src/base/stats/storage.hh:278: warn: Bucket size (4) does not divide range [1:32] into equal-sized buckets. Rounding up.
src/base/stats/storage.hh:278: warn: Bucket size (4) does not divide range [1:8] into equal-sized buckets. Rounding up.
src/base/remote_gdb.cc:418: warn: Sockets disabled, not accepting gdb connections
gem5 Simulator System.  https://www.gem5.org
gem5 is copyrighted software; use the --copyright option for details.

gem5 version 25.1.0.0
gem5 compiled Apr 19 2026 20:34:35
gem5 started Apr 20 2026 14:02:32
gem5 executing on shafin-HP-Laptop-14s-fq1786, pid 38163
command line: ./gem5/build/ALL/gem5.opt rw_ratio_bench.py --binary-path rw_ratio_bench-X86 --isa X86 --sq-size 8 --lq-size 8 --write-ratio 0

info: Standard input is not a terminal, disabling listeners.
Parameters:
  binary-path: rw_ratio_bench-X86
  write-ratio: 0
  isa: X86
  rob-size: 512
  lq-size: 8
  sq-size: 8
Running the simulation
Using O3 cpu
src/sim/syscall_emul.cc:86: warn: ignoring syscall set_robust_list(...)
src/sim/syscall_emul.cc:86: warn: ignoring syscall rseq(...)
src/sim/mem_state.cc:443: info: Increasing stack size by one page.
src/sim/syscall_emul.hh:1127: warn: readlink() called on '/proc/self/exe' may yield unexpected results in various settings.
      Returning '/media/shafin/secondary/CXL-consistency-tax/rw_ratio_bench-X86'
src/sim/syscall_emul.cc:86: warn: ignoring syscall mprotect(...)
elements=1000000 ops=100000 write_ratio=0 seed=1 memory_order=relaxed
elapsed=0.013290 s
read_ops=100000 (7.524 Mop/s)
write_ops=0 (0.000 Mop/s)
total_ops=100000 (7.524 Mop/s)
read_sum=0
write_sum=0
All simulation events were successful.
Done with the simulation after 58.54 seconds of wall clock time!
Running with ISA=X86, SQ size=16, LQ size=16, write-ratio=0
Global frequency set at 1000000000000 ticks per second
warn: rounding error > tolerance
    29.103830 rounded to 29
warn: rounding error > tolerance
    29.103830 rounded to 29
warn: No dot file generated. Please install pydot to generate the dot file and pdf.
warn: rounding error > tolerance
    29.103830 rounded to 29
src/base/statistics.hh:279: warn: One of the stats is a legacy stat. Legacy stat is a stat that does not belong to any statistics::Group. Legacy stat is deprecated.
src/base/stats/storage.hh:278: warn: Bucket size (4) does not divide range [1:32] into equal-sized buckets. Rounding up.
src/base/stats/storage.hh:278: warn: Bucket size (4) does not divide range [1:8] into equal-sized buckets. Rounding up.
src/base/remote_gdb.cc:418: warn: Sockets disabled, not accepting gdb connections
gem5 Simulator System.  https://www.gem5.org
gem5 is copyrighted software; use the --copyright option for details.

gem5 version 25.1.0.0
gem5 compiled Apr 19 2026 20:34:35
gem5 started Apr 20 2026 14:03:32
gem5 executing on shafin-HP-Laptop-14s-fq1786, pid 38268
command line: ./gem5/build/ALL/gem5.opt rw_ratio_bench.py --binary-path rw_ratio_bench-X86 --isa X86 --sq-size 16 --lq-size 16 --write-ratio 0

info: Standard input is not a terminal, disabling listeners.
Parameters:
  binary-path: rw_ratio_bench-X86
  write-ratio: 0
  isa: X86
  rob-size: 512
  lq-size: 16
  sq-size: 16
Running the simulation
Using O3 cpu
src/sim/syscall_emul.cc:86: warn: ignoring syscall set_robust_list(...)
src/sim/syscall_emul.cc:86: warn: ignoring syscall rseq(...)
src/sim/mem_state.cc:443: info: Increasing stack size by one page.
src/sim/syscall_emul.hh:1127: warn: readlink() called on '/proc/self/exe' may yield unexpected results in various settings.
      Returning '/media/shafin/secondary/CXL-consistency-tax/rw_ratio_bench-X86'
src/sim/syscall_emul.cc:86: warn: ignoring syscall mprotect(...)
elements=1000000 ops=100000 write_ratio=0 seed=1 memory_order=relaxed
elapsed=0.013290 s
read_ops=100000 (7.524 Mop/s)
write_ops=0 (0.000 Mop/s)
total_ops=100000 (7.524 Mop/s)
read_sum=0
write_sum=0
All simulation events were successful.
Done with the simulation after 58.26 seconds of wall clock time!
Running with ISA=X86, SQ size=32, LQ size=32, write-ratio=0
Global frequency set at 1000000000000 ticks per second
warn: rounding error > tolerance
    29.103830 rounded to 29
warn: rounding error > tolerance
    29.103830 rounded to 29
warn: No dot file generated. Please install pydot to generate the dot file and pdf.
warn: rounding error > tolerance
    29.103830 rounded to 29
src/base/statistics.hh:279: warn: One of the stats is a legacy stat. Legacy stat is a stat that does not belong to any statistics::Group. Legacy stat is deprecated.
src/base/stats/storage.hh:278: warn: Bucket size (4) does not divide range [1:32] into equal-sized buckets. Rounding up.
src/base/stats/storage.hh:278: warn: Bucket size (4) does not divide range [1:8] into equal-sized buckets. Rounding up.
src/base/remote_gdb.cc:418: warn: Sockets disabled, not accepting gdb connections
gem5 Simulator System.  https://www.gem5.org
gem5 is copyrighted software; use the --copyright option for details.

gem5 version 25.1.0.0
gem5 compiled Apr 19 2026 20:34:35
gem5 started Apr 20 2026 14:04:31
gem5 executing on shafin-HP-Laptop-14s-fq1786, pid 38367
command line: ./gem5/build/ALL/gem5.opt rw_ratio_bench.py --binary-path rw_ratio_bench-X86 --isa X86 --sq-size 32 --lq-size 32 --write-ratio 0

info: Standard input is not a terminal, disabling listeners.
Parameters:
  binary-path: rw_ratio_bench-X86
  write-ratio: 0
  isa: X86
  rob-size: 512
  lq-size: 32
  sq-size: 32
Running the simulation
Using O3 cpu
src/sim/syscall_emul.cc:86: warn: ignoring syscall set_robust_list(...)
src/sim/syscall_emul.cc:86: warn: ignoring syscall rseq(...)
src/sim/mem_state.cc:443: info: Increasing stack size by one page.
src/sim/syscall_emul.hh:1127: warn: readlink() called on '/proc/self/exe' may yield unexpected results in various settings.
      Returning '/media/shafin/secondary/CXL-consistency-tax/rw_ratio_bench-X86'
src/sim/syscall_emul.cc:86: warn: ignoring syscall mprotect(...)
elements=1000000 ops=100000 write_ratio=0 seed=1 memory_order=relaxed
elapsed=0.013290 s
read_ops=100000 (7.524 Mop/s)
write_ops=0 (0.000 Mop/s)
total_ops=100000 (7.524 Mop/s)
read_sum=0
write_sum=0
All simulation events were successful.
Done with the simulation after 57.87 seconds of wall clock time!
Running with ISA=X86, SQ size=64, LQ size=64, write-ratio=0
Global frequency set at 1000000000000 ticks per second
warn: rounding error > tolerance
    29.103830 rounded to 29
warn: rounding error > tolerance
    29.103830 rounded to 29
warn: No dot file generated. Please install pydot to generate the dot file and pdf.
warn: rounding error > tolerance
    29.103830 rounded to 29
src/base/statistics.hh:279: warn: One of the stats is a legacy stat. Legacy stat is a stat that does not belong to any statistics::Group. Legacy stat is deprecated.
src/base/stats/storage.hh:278: warn: Bucket size (4) does not divide range [1:32] into equal-sized buckets. Rounding up.
src/base/stats/storage.hh:278: warn: Bucket size (4) does not divide range [1:8] into equal-sized buckets. Rounding up.
src/base/remote_gdb.cc:418: warn: Sockets disabled, not accepting gdb connections
gem5 Simulator System.  https://www.gem5.org
gem5 is copyrighted software; use the --copyright option for details.

gem5 version 25.1.0.0
gem5 compiled Apr 19 2026 20:34:35
gem5 started Apr 20 2026 14:05:29
gem5 executing on shafin-HP-Laptop-14s-fq1786, pid 38468
command line: ./gem5/build/ALL/gem5.opt rw_ratio_bench.py --binary-path rw_ratio_bench-X86 --isa X86 --sq-size 64 --lq-size 64 --write-ratio 0

info: Standard input is not a terminal, disabling listeners.
Parameters:
  binary-path: rw_ratio_bench-X86
  write-ratio: 0
  isa: X86
  rob-size: 512
  lq-size: 64
  sq-size: 64
Running the simulation
Using O3 cpu
src/sim/syscall_emul.cc:86: warn: ignoring syscall set_robust_list(...)
src/sim/syscall_emul.cc:86: warn: ignoring syscall rseq(...)
src/sim/mem_state.cc:443: info: Increasing stack size by one page.
src/sim/syscall_emul.hh:1127: warn: readlink() called on '/proc/self/exe' may yield unexpected results in various settings.
      Returning '/media/shafin/secondary/CXL-consistency-tax/rw_ratio_bench-X86'
src/sim/syscall_emul.cc:86: warn: ignoring syscall mprotect(...)
elements=1000000 ops=100000 write_ratio=0 seed=1 memory_order=relaxed
elapsed=0.013290 s
read_ops=100000 (7.524 Mop/s)
write_ops=0 (0.000 Mop/s)
total_ops=100000 (7.524 Mop/s)
read_sum=0
write_sum=0
All simulation events were successful.
Done with the simulation after 57.77 seconds of wall clock time!
Running with ISA=X86, SQ size=128, LQ size=128, write-ratio=0
Global frequency set at 1000000000000 ticks per second
warn: rounding error > tolerance
    29.103830 rounded to 29
warn: rounding error > tolerance
    29.103830 rounded to 29
warn: No dot file generated. Please install pydot to generate the dot file and pdf.
warn: rounding error > tolerance
    29.103830 rounded to 29
src/base/statistics.hh:279: warn: One of the stats is a legacy stat. Legacy stat is a stat that does not belong to any statistics::Group. Legacy stat is deprecated.
src/base/stats/storage.hh:278: warn: Bucket size (4) does not divide range [1:32] into equal-sized buckets. Rounding up.
src/base/stats/storage.hh:278: warn: Bucket size (4) does not divide range [1:8] into equal-sized buckets. Rounding up.
src/base/remote_gdb.cc:418: warn: Sockets disabled, not accepting gdb connections
gem5 Simulator System.  https://www.gem5.org
gem5 is copyrighted software; use the --copyright option for details.

gem5 version 25.1.0.0
gem5 compiled Apr 19 2026 20:34:35
gem5 started Apr 20 2026 14:06:28
gem5 executing on shafin-HP-Laptop-14s-fq1786, pid 38568
command line: ./gem5/build/ALL/gem5.opt rw_ratio_bench.py --binary-path rw_ratio_bench-X86 --isa X86 --sq-size 128 --lq-size 128 --write-ratio 0

info: Standard input is not a terminal, disabling listeners.
Parameters:
  binary-path: rw_ratio_bench-X86
  write-ratio: 0
  isa: X86
  rob-size: 512
  lq-size: 128
  sq-size: 128
Running the simulation
Using O3 cpu
src/sim/syscall_emul.cc:86: warn: ignoring syscall set_robust_list(...)
src/sim/syscall_emul.cc:86: warn: ignoring syscall rseq(...)
src/sim/mem_state.cc:443: info: Increasing stack size by one page.
src/sim/syscall_emul.hh:1127: warn: readlink() called on '/proc/self/exe' may yield unexpected results in various settings.
      Returning '/media/shafin/secondary/CXL-consistency-tax/rw_ratio_bench-X86'
src/sim/syscall_emul.cc:86: warn: ignoring syscall mprotect(...)
elements=1000000 ops=100000 write_ratio=0 seed=1 memory_order=relaxed
elapsed=0.013290 s
read_ops=100000 (7.524 Mop/s)
write_ops=0 (0.000 Mop/s)
total_ops=100000 (7.524 Mop/s)
read_sum=0
write_sum=0
All simulation events were successful.
Done with the simulation after 57.88 seconds of wall clock time!
Running with ISA=ARM, SQ size=8, LQ size=8, write-ratio=100
Global frequency set at 1000000000000 ticks per second
warn: rounding error > tolerance
    29.103830 rounded to 29
warn: rounding error > tolerance
    29.103830 rounded to 29
warn: No dot file generated. Please install pydot to generate the dot file and pdf.
warn: rounding error > tolerance
    29.103830 rounded to 29
src/base/statistics.hh:279: warn: One of the stats is a legacy stat. Legacy stat is a stat that does not belong to any statistics::Group. Legacy stat is deprecated.
src/base/stats/storage.hh:278: warn: Bucket size (4) does not divide range [1:32] into equal-sized buckets. Rounding up.
src/base/stats/storage.hh:278: warn: Bucket size (4) does not divide range [1:8] into equal-sized buckets. Rounding up.
src/base/remote_gdb.cc:418: warn: Sockets disabled, not accepting gdb connections
gem5 Simulator System.  https://www.gem5.org
gem5 is copyrighted software; use the --copyright option for details.

gem5 version 25.1.0.0
gem5 compiled Apr 19 2026 20:34:35
gem5 started Apr 20 2026 14:07:26
gem5 executing on shafin-HP-Laptop-14s-fq1786, pid 38661
command line: ./gem5/build/ALL/gem5.opt rw_ratio_bench.py --binary-path rw_ratio_bench-ARM --isa ARM --sq-size 8 --lq-size 8 --write-ratio 100

info: Standard input is not a terminal, disabling listeners.
Parameters:
  binary-path: rw_ratio_bench-ARM
  write-ratio: 100
  isa: ARM
  rob-size: 512
  lq-size: 8
  sq-size: 8
Running the simulation
Using O3 cpu
src/arch/arm/insts/pseudo.cc:174: warn: 	instruction 'bti' unimplemented
src/sim/syscall_emul.cc:86: warn: ignoring syscall set_robust_list(...)
src/sim/syscall_emul.cc:97: warn: ignoring syscall rseq(...)
      (further warnings will be suppressed)
src/sim/mem_state.cc:443: info: Increasing stack size by one page.
src/sim/syscall_emul.hh:1127: warn: readlink() called on '/proc/self/exe' may yield unexpected results in various settings.
      Returning '/media/shafin/secondary/CXL-consistency-tax/rw_ratio_bench-ARM'
src/sim/syscall_emul.cc:86: warn: ignoring syscall mprotect(...)
src/arch/arm/insts/pseudo.cc:174: warn: 	instruction 'unallocated_hint' unimplemented
src/arch/arm/insts/pseudo.cc:174: warn: 	instruction 'bti' unimplemented
src/sim/syscall_emul.hh:816: warn: Unsupported ioctl call (return ENOTTY): ioctl(1, 0x802c542a, ...) @ (0x442bdc=>0x442be0).(0=>1)
elements=1000000 ops=100000 write_ratio=100 seed=1 memory_order=relaxed
elapsed=0.025671 s
read_ops=0 (0.000 Mop/s)
write_ops=100000 (3.896 Mop/s)
total_ops=100000 (3.896 Mop/s)
read_sum=0
write_sum=13585527720886067007
All simulation events were successful.
Done with the simulation after 85.32 seconds of wall clock time!
Running with ISA=ARM, SQ size=16, LQ size=16, write-ratio=100
Global frequency set at 1000000000000 ticks per second
warn: rounding error > tolerance
    29.103830 rounded to 29
warn: rounding error > tolerance
    29.103830 rounded to 29
warn: No dot file generated. Please install pydot to generate the dot file and pdf.
warn: rounding error > tolerance
    29.103830 rounded to 29
src/base/statistics.hh:279: warn: One of the stats is a legacy stat. Legacy stat is a stat that does not belong to any statistics::Group. Legacy stat is deprecated.
src/base/stats/storage.hh:278: warn: Bucket size (4) does not divide range [1:32] into equal-sized buckets. Rounding up.
src/base/stats/storage.hh:278: warn: Bucket size (4) does not divide range [1:8] into equal-sized buckets. Rounding up.
src/base/remote_gdb.cc:418: warn: Sockets disabled, not accepting gdb connections
gem5 Simulator System.  https://www.gem5.org
gem5 is copyrighted software; use the --copyright option for details.

gem5 version 25.1.0.0
gem5 compiled Apr 19 2026 20:34:35
gem5 started Apr 20 2026 14:08:52
gem5 executing on shafin-HP-Laptop-14s-fq1786, pid 38757
command line: ./gem5/build/ALL/gem5.opt rw_ratio_bench.py --binary-path rw_ratio_bench-ARM --isa ARM --sq-size 16 --lq-size 16 --write-ratio 100

info: Standard input is not a terminal, disabling listeners.
Parameters:
  binary-path: rw_ratio_bench-ARM
  write-ratio: 100
  isa: ARM
  rob-size: 512
  lq-size: 16
  sq-size: 16
Running the simulation
Using O3 cpu
src/arch/arm/insts/pseudo.cc:174: warn: 	instruction 'bti' unimplemented
src/sim/syscall_emul.cc:86: warn: ignoring syscall set_robust_list(...)
src/sim/syscall_emul.cc:97: warn: ignoring syscall rseq(...)
      (further warnings will be suppressed)
src/sim/mem_state.cc:443: info: Increasing stack size by one page.
src/sim/syscall_emul.hh:1127: warn: readlink() called on '/proc/self/exe' may yield unexpected results in various settings.
      Returning '/media/shafin/secondary/CXL-consistency-tax/rw_ratio_bench-ARM'
src/sim/syscall_emul.cc:86: warn: ignoring syscall mprotect(...)
src/arch/arm/insts/pseudo.cc:174: warn: 	instruction 'unallocated_hint' unimplemented
src/arch/arm/insts/pseudo.cc:174: warn: 	instruction 'bti' unimplemented
src/sim/syscall_emul.hh:816: warn: Unsupported ioctl call (return ENOTTY): ioctl(1, 0x802c542a, ...) @ (0x442bdc=>0x442be0).(0=>1)
elements=1000000 ops=100000 write_ratio=100 seed=1 memory_order=relaxed
elapsed=0.025671 s
read_ops=0 (0.000 Mop/s)
write_ops=100000 (3.896 Mop/s)
total_ops=100000 (3.896 Mop/s)
read_sum=0
write_sum=13585527720886067007
All simulation events were successful.
Done with the simulation after 88.12 seconds of wall clock time!
Running with ISA=ARM, SQ size=32, LQ size=32, write-ratio=100
Global frequency set at 1000000000000 ticks per second
warn: rounding error > tolerance
    29.103830 rounded to 29
warn: rounding error > tolerance
    29.103830 rounded to 29
warn: No dot file generated. Please install pydot to generate the dot file and pdf.
warn: rounding error > tolerance
    29.103830 rounded to 29
src/base/statistics.hh:279: warn: One of the stats is a legacy stat. Legacy stat is a stat that does not belong to any statistics::Group. Legacy stat is deprecated.
src/base/stats/storage.hh:278: warn: Bucket size (4) does not divide range [1:32] into equal-sized buckets. Rounding up.
src/base/stats/storage.hh:278: warn: Bucket size (4) does not divide range [1:8] into equal-sized buckets. Rounding up.
src/base/remote_gdb.cc:418: warn: Sockets disabled, not accepting gdb connections
gem5 Simulator System.  https://www.gem5.org
gem5 is copyrighted software; use the --copyright option for details.

gem5 version 25.1.0.0
gem5 compiled Apr 19 2026 20:34:35
gem5 started Apr 20 2026 14:10:21
gem5 executing on shafin-HP-Laptop-14s-fq1786, pid 38895
command line: ./gem5/build/ALL/gem5.opt rw_ratio_bench.py --binary-path rw_ratio_bench-ARM --isa ARM --sq-size 32 --lq-size 32 --write-ratio 100

info: Standard input is not a terminal, disabling listeners.
Parameters:
  binary-path: rw_ratio_bench-ARM
  write-ratio: 100
  isa: ARM
  rob-size: 512
  lq-size: 32
  sq-size: 32
Running the simulation
Using O3 cpu
src/arch/arm/insts/pseudo.cc:174: warn: 	instruction 'bti' unimplemented
src/sim/syscall_emul.cc:86: warn: ignoring syscall set_robust_list(...)
src/sim/syscall_emul.cc:97: warn: ignoring syscall rseq(...)
      (further warnings will be suppressed)
src/sim/mem_state.cc:443: info: Increasing stack size by one page.
src/sim/syscall_emul.hh:1127: warn: readlink() called on '/proc/self/exe' may yield unexpected results in various settings.
      Returning '/media/shafin/secondary/CXL-consistency-tax/rw_ratio_bench-ARM'
src/sim/syscall_emul.cc:86: warn: ignoring syscall mprotect(...)
src/arch/arm/insts/pseudo.cc:174: warn: 	instruction 'unallocated_hint' unimplemented
src/arch/arm/insts/pseudo.cc:174: warn: 	instruction 'bti' unimplemented
src/sim/syscall_emul.hh:816: warn: Unsupported ioctl call (return ENOTTY): ioctl(1, 0x802c542a, ...) @ (0x442bdc=>0x442be0).(0=>1)
elements=1000000 ops=100000 write_ratio=100 seed=1 memory_order=relaxed
elapsed=0.025670 s
read_ops=0 (0.000 Mop/s)
write_ops=100000 (3.896 Mop/s)
total_ops=100000 (3.896 Mop/s)
read_sum=0
write_sum=13585527720886067007
All simulation events were successful.
Done with the simulation after 87.97 seconds of wall clock time!
Running with ISA=ARM, SQ size=64, LQ size=64, write-ratio=100
Global frequency set at 1000000000000 ticks per second
warn: rounding error > tolerance
    29.103830 rounded to 29
warn: rounding error > tolerance
    29.103830 rounded to 29
warn: No dot file generated. Please install pydot to generate the dot file and pdf.
warn: rounding error > tolerance
    29.103830 rounded to 29
src/base/statistics.hh:279: warn: One of the stats is a legacy stat. Legacy stat is a stat that does not belong to any statistics::Group. Legacy stat is deprecated.
src/base/stats/storage.hh:278: warn: Bucket size (4) does not divide range [1:32] into equal-sized buckets. Rounding up.
src/base/stats/storage.hh:278: warn: Bucket size (4) does not divide range [1:8] into equal-sized buckets. Rounding up.
src/base/remote_gdb.cc:418: warn: Sockets disabled, not accepting gdb connections
gem5 Simulator System.  https://www.gem5.org
gem5 is copyrighted software; use the --copyright option for details.

gem5 version 25.1.0.0
gem5 compiled Apr 19 2026 20:34:35
gem5 started Apr 20 2026 14:11:50
gem5 executing on shafin-HP-Laptop-14s-fq1786, pid 39050
command line: ./gem5/build/ALL/gem5.opt rw_ratio_bench.py --binary-path rw_ratio_bench-ARM --isa ARM --sq-size 64 --lq-size 64 --write-ratio 100

info: Standard input is not a terminal, disabling listeners.
Parameters:
  binary-path: rw_ratio_bench-ARM
  write-ratio: 100
  isa: ARM
  rob-size: 512
  lq-size: 64
  sq-size: 64
Running the simulation
Using O3 cpu
src/arch/arm/insts/pseudo.cc:174: warn: 	instruction 'bti' unimplemented
src/sim/syscall_emul.cc:86: warn: ignoring syscall set_robust_list(...)
src/sim/syscall_emul.cc:97: warn: ignoring syscall rseq(...)
      (further warnings will be suppressed)
src/sim/mem_state.cc:443: info: Increasing stack size by one page.
src/sim/syscall_emul.hh:1127: warn: readlink() called on '/proc/self/exe' may yield unexpected results in various settings.
      Returning '/media/shafin/secondary/CXL-consistency-tax/rw_ratio_bench-ARM'
src/sim/syscall_emul.cc:86: warn: ignoring syscall mprotect(...)
src/arch/arm/insts/pseudo.cc:174: warn: 	instruction 'unallocated_hint' unimplemented
src/arch/arm/insts/pseudo.cc:174: warn: 	instruction 'bti' unimplemented
src/sim/syscall_emul.hh:816: warn: Unsupported ioctl call (return ENOTTY): ioctl(1, 0x802c542a, ...) @ (0x442bdc=>0x442be0).(0=>1)
elements=1000000 ops=100000 write_ratio=100 seed=1 memory_order=relaxed
elapsed=0.025670 s
read_ops=0 (0.000 Mop/s)
write_ops=100000 (3.896 Mop/s)
total_ops=100000 (3.896 Mop/s)
read_sum=0
write_sum=13585527720886067007
All simulation events were successful.
Done with the simulation after 87.06 seconds of wall clock time!
Running with ISA=ARM, SQ size=128, LQ size=128, write-ratio=100
Global frequency set at 1000000000000 ticks per second
warn: rounding error > tolerance
    29.103830 rounded to 29
warn: rounding error > tolerance
    29.103830 rounded to 29
warn: No dot file generated. Please install pydot to generate the dot file and pdf.
warn: rounding error > tolerance
    29.103830 rounded to 29
src/base/statistics.hh:279: warn: One of the stats is a legacy stat. Legacy stat is a stat that does not belong to any statistics::Group. Legacy stat is deprecated.
src/base/stats/storage.hh:278: warn: Bucket size (4) does not divide range [1:32] into equal-sized buckets. Rounding up.
src/base/stats/storage.hh:278: warn: Bucket size (4) does not divide range [1:8] into equal-sized buckets. Rounding up.
src/base/remote_gdb.cc:418: warn: Sockets disabled, not accepting gdb connections
gem5 Simulator System.  https://www.gem5.org
gem5 is copyrighted software; use the --copyright option for details.

gem5 version 25.1.0.0
gem5 compiled Apr 19 2026 20:34:35
gem5 started Apr 20 2026 14:13:18
gem5 executing on shafin-HP-Laptop-14s-fq1786, pid 39122
command line: ./gem5/build/ALL/gem5.opt rw_ratio_bench.py --binary-path rw_ratio_bench-ARM --isa ARM --sq-size 128 --lq-size 128 --write-ratio 100

info: Standard input is not a terminal, disabling listeners.
Parameters:
  binary-path: rw_ratio_bench-ARM
  write-ratio: 100
  isa: ARM
  rob-size: 512
  lq-size: 128
  sq-size: 128
Running the simulation
Using O3 cpu
src/arch/arm/insts/pseudo.cc:174: warn: 	instruction 'bti' unimplemented
src/sim/syscall_emul.cc:86: warn: ignoring syscall set_robust_list(...)
src/sim/syscall_emul.cc:97: warn: ignoring syscall rseq(...)
      (further warnings will be suppressed)
src/sim/mem_state.cc:443: info: Increasing stack size by one page.
src/sim/syscall_emul.hh:1127: warn: readlink() called on '/proc/self/exe' may yield unexpected results in various settings.
      Returning '/media/shafin/secondary/CXL-consistency-tax/rw_ratio_bench-ARM'
src/sim/syscall_emul.cc:86: warn: ignoring syscall mprotect(...)
src/arch/arm/insts/pseudo.cc:174: warn: 	instruction 'unallocated_hint' unimplemented
src/arch/arm/insts/pseudo.cc:174: warn: 	instruction 'bti' unimplemented
src/sim/syscall_emul.hh:816: warn: Unsupported ioctl call (return ENOTTY): ioctl(1, 0x802c542a, ...) @ (0x442bdc=>0x442be0).(0=>1)
elements=1000000 ops=100000 write_ratio=100 seed=1 memory_order=relaxed
elapsed=0.025670 s
read_ops=0 (0.000 Mop/s)
write_ops=100000 (3.896 Mop/s)
total_ops=100000 (3.896 Mop/s)
read_sum=0
write_sum=13585527720886067007
All simulation events were successful.
Done with the simulation after 86.06 seconds of wall clock time!
Running with ISA=X86, SQ size=8, LQ size=8, write-ratio=100
Global frequency set at 1000000000000 ticks per second
warn: rounding error > tolerance
    29.103830 rounded to 29
warn: rounding error > tolerance
    29.103830 rounded to 29
warn: No dot file generated. Please install pydot to generate the dot file and pdf.
warn: rounding error > tolerance
    29.103830 rounded to 29
src/base/statistics.hh:279: warn: One of the stats is a legacy stat. Legacy stat is a stat that does not belong to any statistics::Group. Legacy stat is deprecated.
src/base/stats/storage.hh:278: warn: Bucket size (4) does not divide range [1:32] into equal-sized buckets. Rounding up.
src/base/stats/storage.hh:278: warn: Bucket size (4) does not divide range [1:8] into equal-sized buckets. Rounding up.
src/base/remote_gdb.cc:418: warn: Sockets disabled, not accepting gdb connections
gem5 Simulator System.  https://www.gem5.org
gem5 is copyrighted software; use the --copyright option for details.

gem5 version 25.1.0.0
gem5 compiled Apr 19 2026 20:34:35
gem5 started Apr 20 2026 14:14:44
gem5 executing on shafin-HP-Laptop-14s-fq1786, pid 39256
command line: ./gem5/build/ALL/gem5.opt rw_ratio_bench.py --binary-path rw_ratio_bench-X86 --isa X86 --sq-size 8 --lq-size 8 --write-ratio 100

info: Standard input is not a terminal, disabling listeners.
Parameters:
  binary-path: rw_ratio_bench-X86
  write-ratio: 100
  isa: X86
  rob-size: 512
  lq-size: 8
  sq-size: 8
Running the simulation
Using O3 cpu
src/sim/syscall_emul.cc:86: warn: ignoring syscall set_robust_list(...)
src/sim/syscall_emul.cc:86: warn: ignoring syscall rseq(...)
src/sim/mem_state.cc:443: info: Increasing stack size by one page.
src/sim/syscall_emul.hh:1127: warn: readlink() called on '/proc/self/exe' may yield unexpected results in various settings.
      Returning '/media/shafin/secondary/CXL-consistency-tax/rw_ratio_bench-X86'
src/sim/syscall_emul.cc:86: warn: ignoring syscall mprotect(...)
elements=1000000 ops=100000 write_ratio=100 seed=1 memory_order=relaxed
elapsed=0.026271 s
read_ops=0 (0.000 Mop/s)
write_ops=100000 (3.806 Mop/s)
total_ops=100000 (3.806 Mop/s)
read_sum=0
write_sum=13585527720886067007
All simulation events were successful.
Done with the simulation after 100.20 seconds of wall clock time!
Running with ISA=X86, SQ size=16, LQ size=16, write-ratio=100
Global frequency set at 1000000000000 ticks per second
warn: rounding error > tolerance
    29.103830 rounded to 29
warn: rounding error > tolerance
    29.103830 rounded to 29
warn: No dot file generated. Please install pydot to generate the dot file and pdf.
warn: rounding error > tolerance
    29.103830 rounded to 29
src/base/statistics.hh:279: warn: One of the stats is a legacy stat. Legacy stat is a stat that does not belong to any statistics::Group. Legacy stat is deprecated.
src/base/stats/storage.hh:278: warn: Bucket size (4) does not divide range [1:32] into equal-sized buckets. Rounding up.
src/base/stats/storage.hh:278: warn: Bucket size (4) does not divide range [1:8] into equal-sized buckets. Rounding up.
src/base/remote_gdb.cc:418: warn: Sockets disabled, not accepting gdb connections
gem5 Simulator System.  https://www.gem5.org
gem5 is copyrighted software; use the --copyright option for details.

gem5 version 25.1.0.0
gem5 compiled Apr 19 2026 20:34:35
gem5 started Apr 20 2026 14:16:25
gem5 executing on shafin-HP-Laptop-14s-fq1786, pid 39478
command line: ./gem5/build/ALL/gem5.opt rw_ratio_bench.py --binary-path rw_ratio_bench-X86 --isa X86 --sq-size 16 --lq-size 16 --write-ratio 100

info: Standard input is not a terminal, disabling listeners.
Parameters:
  binary-path: rw_ratio_bench-X86
  write-ratio: 100
  isa: X86
  rob-size: 512
  lq-size: 16
  sq-size: 16
Running the simulation
Using O3 cpu
src/sim/syscall_emul.cc:86: warn: ignoring syscall set_robust_list(...)
src/sim/syscall_emul.cc:86: warn: ignoring syscall rseq(...)
src/sim/mem_state.cc:443: info: Increasing stack size by one page.
src/sim/syscall_emul.hh:1127: warn: readlink() called on '/proc/self/exe' may yield unexpected results in various settings.
      Returning '/media/shafin/secondary/CXL-consistency-tax/rw_ratio_bench-X86'
src/sim/syscall_emul.cc:86: warn: ignoring syscall mprotect(...)
elements=1000000 ops=100000 write_ratio=100 seed=1 memory_order=relaxed
elapsed=0.026271 s
read_ops=0 (0.000 Mop/s)
write_ops=100000 (3.806 Mop/s)
total_ops=100000 (3.806 Mop/s)
read_sum=0
write_sum=13585527720886067007
All simulation events were successful.
Done with the simulation after 102.24 seconds of wall clock time!
Running with ISA=X86, SQ size=32, LQ size=32, write-ratio=100
Global frequency set at 1000000000000 ticks per second
warn: rounding error > tolerance
    29.103830 rounded to 29
warn: rounding error > tolerance
    29.103830 rounded to 29
warn: No dot file generated. Please install pydot to generate the dot file and pdf.
warn: rounding error > tolerance
    29.103830 rounded to 29
src/base/statistics.hh:279: warn: One of the stats is a legacy stat. Legacy stat is a stat that does not belong to any statistics::Group. Legacy stat is deprecated.
src/base/stats/storage.hh:278: warn: Bucket size (4) does not divide range [1:32] into equal-sized buckets. Rounding up.
src/base/stats/storage.hh:278: warn: Bucket size (4) does not divide range [1:8] into equal-sized buckets. Rounding up.
src/base/remote_gdb.cc:418: warn: Sockets disabled, not accepting gdb connections
gem5 Simulator System.  https://www.gem5.org
gem5 is copyrighted software; use the --copyright option for details.

gem5 version 25.1.0.0
gem5 compiled Apr 19 2026 20:34:35
gem5 started Apr 20 2026 14:18:08
gem5 executing on shafin-HP-Laptop-14s-fq1786, pid 39649
command line: ./gem5/build/ALL/gem5.opt rw_ratio_bench.py --binary-path rw_ratio_bench-X86 --isa X86 --sq-size 32 --lq-size 32 --write-ratio 100

info: Standard input is not a terminal, disabling listeners.
Parameters:
  binary-path: rw_ratio_bench-X86
  write-ratio: 100
  isa: X86
  rob-size: 512
  lq-size: 32
  sq-size: 32
Running the simulation
Using O3 cpu
src/sim/syscall_emul.cc:86: warn: ignoring syscall set_robust_list(...)
src/sim/syscall_emul.cc:86: warn: ignoring syscall rseq(...)
src/sim/mem_state.cc:443: info: Increasing stack size by one page.
src/sim/syscall_emul.hh:1127: warn: readlink() called on '/proc/self/exe' may yield unexpected results in various settings.
      Returning '/media/shafin/secondary/CXL-consistency-tax/rw_ratio_bench-X86'
src/sim/syscall_emul.cc:86: warn: ignoring syscall mprotect(...)
elements=1000000 ops=100000 write_ratio=100 seed=1 memory_order=relaxed
elapsed=0.026271 s
read_ops=0 (0.000 Mop/s)
write_ops=100000 (3.806 Mop/s)
total_ops=100000 (3.806 Mop/s)
read_sum=0
write_sum=13585527720886067007
All simulation events were successful.
Done with the simulation after 101.15 seconds of wall clock time!
Running with ISA=X86, SQ size=64, LQ size=64, write-ratio=100
Global frequency set at 1000000000000 ticks per second
warn: rounding error > tolerance
    29.103830 rounded to 29
warn: rounding error > tolerance
    29.103830 rounded to 29
warn: No dot file generated. Please install pydot to generate the dot file and pdf.
warn: rounding error > tolerance
    29.103830 rounded to 29
src/base/statistics.hh:279: warn: One of the stats is a legacy stat. Legacy stat is a stat that does not belong to any statistics::Group. Legacy stat is deprecated.
src/base/stats/storage.hh:278: warn: Bucket size (4) does not divide range [1:32] into equal-sized buckets. Rounding up.
src/base/stats/storage.hh:278: warn: Bucket size (4) does not divide range [1:8] into equal-sized buckets. Rounding up.
src/base/remote_gdb.cc:418: warn: Sockets disabled, not accepting gdb connections
gem5 Simulator System.  https://www.gem5.org
gem5 is copyrighted software; use the --copyright option for details.

gem5 version 25.1.0.0
gem5 compiled Apr 19 2026 20:34:35
gem5 started Apr 20 2026 14:19:50
gem5 executing on shafin-HP-Laptop-14s-fq1786, pid 39809
command line: ./gem5/build/ALL/gem5.opt rw_ratio_bench.py --binary-path rw_ratio_bench-X86 --isa X86 --sq-size 64 --lq-size 64 --write-ratio 100

info: Standard input is not a terminal, disabling listeners.
Parameters:
  binary-path: rw_ratio_bench-X86
  write-ratio: 100
  isa: X86
  rob-size: 512
  lq-size: 64
  sq-size: 64
Running the simulation
Using O3 cpu
src/sim/syscall_emul.cc:86: warn: ignoring syscall set_robust_list(...)
src/sim/syscall_emul.cc:86: warn: ignoring syscall rseq(...)
src/sim/mem_state.cc:443: info: Increasing stack size by one page.
src/sim/syscall_emul.hh:1127: warn: readlink() called on '/proc/self/exe' may yield unexpected results in various settings.
      Returning '/media/shafin/secondary/CXL-consistency-tax/rw_ratio_bench-X86'
src/sim/syscall_emul.cc:86: warn: ignoring syscall mprotect(...)
elements=1000000 ops=100000 write_ratio=100 seed=1 memory_order=relaxed
elapsed=0.026271 s
read_ops=0 (0.000 Mop/s)
write_ops=100000 (3.806 Mop/s)
total_ops=100000 (3.806 Mop/s)
read_sum=0
write_sum=13585527720886067007
All simulation events were successful.
Done with the simulation after 103.38 seconds of wall clock time!
Running with ISA=X86, SQ size=128, LQ size=128, write-ratio=100
Global frequency set at 1000000000000 ticks per second
warn: rounding error > tolerance
    29.103830 rounded to 29
warn: rounding error > tolerance
    29.103830 rounded to 29
warn: No dot file generated. Please install pydot to generate the dot file and pdf.
warn: rounding error > tolerance
    29.103830 rounded to 29
src/base/statistics.hh:279: warn: One of the stats is a legacy stat. Legacy stat is a stat that does not belong to any statistics::Group. Legacy stat is deprecated.
src/base/stats/storage.hh:278: warn: Bucket size (4) does not divide range [1:32] into equal-sized buckets. Rounding up.
src/base/stats/storage.hh:278: warn: Bucket size (4) does not divide range [1:8] into equal-sized buckets. Rounding up.
src/base/remote_gdb.cc:418: warn: Sockets disabled, not accepting gdb connections
gem5 Simulator System.  https://www.gem5.org
gem5 is copyrighted software; use the --copyright option for details.

gem5 version 25.1.0.0
gem5 compiled Apr 19 2026 20:34:35
gem5 started Apr 20 2026 14:21:34
gem5 executing on shafin-HP-Laptop-14s-fq1786, pid 39980
command line: ./gem5/build/ALL/gem5.opt rw_ratio_bench.py --binary-path rw_ratio_bench-X86 --isa X86 --sq-size 128 --lq-size 128 --write-ratio 100

info: Standard input is not a terminal, disabling listeners.
Parameters:
  binary-path: rw_ratio_bench-X86
  write-ratio: 100
  isa: X86
  rob-size: 512
  lq-size: 128
  sq-size: 128
Running the simulation
Using O3 cpu
src/sim/syscall_emul.cc:86: warn: ignoring syscall set_robust_list(...)
src/sim/syscall_emul.cc:86: warn: ignoring syscall rseq(...)
src/sim/mem_state.cc:443: info: Increasing stack size by one page.
src/sim/syscall_emul.hh:1127: warn: readlink() called on '/proc/self/exe' may yield unexpected results in various settings.
      Returning '/media/shafin/secondary/CXL-consistency-tax/rw_ratio_bench-X86'
src/sim/syscall_emul.cc:86: warn: ignoring syscall mprotect(...)
elements=1000000 ops=100000 write_ratio=100 seed=1 memory_order=relaxed
elapsed=0.026271 s
read_ops=0 (0.000 Mop/s)
write_ops=100000 (3.806 Mop/s)
total_ops=100000 (3.806 Mop/s)
read_sum=0
write_sum=13585527720886067007
All simulation events were successful.
Done with the simulation after 105.42 seconds of wall clock time!
Running with ISA=ARM, SQ size=8, LQ size=8, write-ratio=25
Global frequency set at 1000000000000 ticks per second
warn: rounding error > tolerance
    29.103830 rounded to 29
warn: rounding error > tolerance
    29.103830 rounded to 29
warn: No dot file generated. Please install pydot to generate the dot file and pdf.
warn: rounding error > tolerance
    29.103830 rounded to 29
src/base/statistics.hh:279: warn: One of the stats is a legacy stat. Legacy stat is a stat that does not belong to any statistics::Group. Legacy stat is deprecated.
src/base/stats/storage.hh:278: warn: Bucket size (4) does not divide range [1:32] into equal-sized buckets. Rounding up.
src/base/stats/storage.hh:278: warn: Bucket size (4) does not divide range [1:8] into equal-sized buckets. Rounding up.
src/base/remote_gdb.cc:418: warn: Sockets disabled, not accepting gdb connections
gem5 Simulator System.  https://www.gem5.org
gem5 is copyrighted software; use the --copyright option for details.

gem5 version 25.1.0.0
gem5 compiled Apr 19 2026 20:34:35
gem5 started Apr 20 2026 14:23:20
gem5 executing on shafin-HP-Laptop-14s-fq1786, pid 40151
command line: ./gem5/build/ALL/gem5.opt rw_ratio_bench.py --binary-path rw_ratio_bench-ARM --isa ARM --sq-size 8 --lq-size 8 --write-ratio 25

info: Standard input is not a terminal, disabling listeners.
Parameters:
  binary-path: rw_ratio_bench-ARM
  write-ratio: 25
  isa: ARM
  rob-size: 512
  lq-size: 8
  sq-size: 8
Running the simulation
Using O3 cpu
src/arch/arm/insts/pseudo.cc:174: warn: 	instruction 'bti' unimplemented
src/sim/syscall_emul.cc:86: warn: ignoring syscall set_robust_list(...)
src/sim/syscall_emul.cc:97: warn: ignoring syscall rseq(...)
      (further warnings will be suppressed)
src/sim/mem_state.cc:443: info: Increasing stack size by one page.
src/sim/syscall_emul.hh:1127: warn: readlink() called on '/proc/self/exe' may yield unexpected results in various settings.
      Returning '/media/shafin/secondary/CXL-consistency-tax/rw_ratio_bench-ARM'
src/sim/syscall_emul.cc:86: warn: ignoring syscall mprotect(...)
src/arch/arm/insts/pseudo.cc:174: warn: 	instruction 'unallocated_hint' unimplemented
src/arch/arm/insts/pseudo.cc:174: warn: 	instruction 'bti' unimplemented
src/sim/syscall_emul.hh:816: warn: Unsupported ioctl call (return ENOTTY): ioctl(1, 0x802c542a, ...) @ (0x442bdc=>0x442be0).(0=>1)
elements=1000000 ops=100000 write_ratio=25 seed=1 memory_order=relaxed
elapsed=0.010838 s
read_ops=74821 (6.904 Mop/s)
write_ops=25179 (2.323 Mop/s)
total_ops=100000 (9.227 Mop/s)
read_sum=1889682637469464043
write_sum=13284600926069978378
All simulation events were successful.
Done with the simulation after 41.67 seconds of wall clock time!
Running with ISA=ARM, SQ size=16, LQ size=16, write-ratio=25
Global frequency set at 1000000000000 ticks per second
warn: rounding error > tolerance
    29.103830 rounded to 29
warn: rounding error > tolerance
    29.103830 rounded to 29
warn: No dot file generated. Please install pydot to generate the dot file and pdf.
warn: rounding error > tolerance
    29.103830 rounded to 29
src/base/statistics.hh:279: warn: One of the stats is a legacy stat. Legacy stat is a stat that does not belong to any statistics::Group. Legacy stat is deprecated.
src/base/stats/storage.hh:278: warn: Bucket size (4) does not divide range [1:32] into equal-sized buckets. Rounding up.
src/base/stats/storage.hh:278: warn: Bucket size (4) does not divide range [1:8] into equal-sized buckets. Rounding up.
src/base/remote_gdb.cc:418: warn: Sockets disabled, not accepting gdb connections
gem5 Simulator System.  https://www.gem5.org
gem5 is copyrighted software; use the --copyright option for details.

gem5 version 25.1.0.0
gem5 compiled Apr 19 2026 20:34:35
gem5 started Apr 20 2026 14:24:03
gem5 executing on shafin-HP-Laptop-14s-fq1786, pid 40166
command line: ./gem5/build/ALL/gem5.opt rw_ratio_bench.py --binary-path rw_ratio_bench-ARM --isa ARM --sq-size 16 --lq-size 16 --write-ratio 25

info: Standard input is not a terminal, disabling listeners.
Parameters:
  binary-path: rw_ratio_bench-ARM
  write-ratio: 25
  isa: ARM
  rob-size: 512
  lq-size: 16
  sq-size: 16
Running the simulation
Using O3 cpu
src/arch/arm/insts/pseudo.cc:174: warn: 	instruction 'bti' unimplemented
src/sim/syscall_emul.cc:86: warn: ignoring syscall set_robust_list(...)
src/sim/syscall_emul.cc:97: warn: ignoring syscall rseq(...)
      (further warnings will be suppressed)
src/sim/mem_state.cc:443: info: Increasing stack size by one page.
src/sim/syscall_emul.hh:1127: warn: readlink() called on '/proc/self/exe' may yield unexpected results in various settings.
      Returning '/media/shafin/secondary/CXL-consistency-tax/rw_ratio_bench-ARM'
src/sim/syscall_emul.cc:86: warn: ignoring syscall mprotect(...)
src/arch/arm/insts/pseudo.cc:174: warn: 	instruction 'unallocated_hint' unimplemented
src/arch/arm/insts/pseudo.cc:174: warn: 	instruction 'bti' unimplemented
src/sim/syscall_emul.hh:816: warn: Unsupported ioctl call (return ENOTTY): ioctl(1, 0x802c542a, ...) @ (0x442bdc=>0x442be0).(0=>1)
elements=1000000 ops=100000 write_ratio=25 seed=1 memory_order=relaxed
elapsed=0.007495 s
[...]
elapsed=0.019376 s
read_ops=24945 (1.287 Mop/s)
write_ops=75055 (3.874 Mop/s)
total_ops=100000 (5.161 Mop/s)
read_sum=7111431286016890487
write_sum=17130558444781473672
All simulation events were successful.
Done with the simulation after 81.77 seconds of wall clock time!
Running with ISA=ARM, SQ size=32, LQ size=32, write-ratio=75
Global frequency set at 1000000000000 ticks per second
warn: rounding error > tolerance
    29.103830 rounded to 29
warn: rounding error > tolerance
    29.103830 rounded to 29
warn: No dot file generated. Please install pydot to generate the dot file and pdf.
warn: rounding error > tolerance
    29.103830 rounded to 29
src/base/statistics.hh:279: warn: One of the stats is a legacy stat. Legacy stat is a stat that does not belong to any statistics::Group. Legacy stat is deprecated.
src/base/stats/storage.hh:278: warn: Bucket size (4) does not divide range [1:32] into equal-sized buckets. Rounding up.
src/base/stats/storage.hh:278: warn: Bucket size (4) does not divide range [1:8] into equal-sized buckets. Rounding up.
src/base/remote_gdb.cc:418: warn: Sockets disabled, not accepting gdb connections
gem5 Simulator System.  https://www.gem5.org
gem5 is copyrighted software; use the --copyright option for details.

gem5 version 25.1.0.0
gem5 compiled Apr 19 2026 20:34:35
gem5 started Apr 20 2026 14:34:43
gem5 executing on shafin-HP-Laptop-14s-fq1786, pid 41718
command line: ./gem5/build/ALL/gem5.opt rw_ratio_bench.py --binary-path rw_ratio_bench-ARM --isa ARM --sq-size 32 --lq-size 32 --write-ratio 75

info: Standard input is not a terminal, disabling listeners.
Parameters:
  binary-path: rw_ratio_bench-ARM
  write-ratio: 75
  isa: ARM
  rob-size: 512
  lq-size: 32
  sq-size: 32
Running the simulation
Using O3 cpu
src/arch/arm/insts/pseudo.cc:174: warn: 	instruction 'bti' unimplemented
src/sim/syscall_emul.cc:86: warn: ignoring syscall set_robust_list(...)
src/sim/syscall_emul.cc:97: warn: ignoring syscall rseq(...)
      (further warnings will be suppressed)
src/sim/mem_state.cc:443: info: Increasing stack size by one page.
src/sim/syscall_emul.hh:1127: warn: readlink() called on '/proc/self/exe' may yield unexpected results in various settings.
      Returning '/media/shafin/secondary/CXL-consistency-tax/rw_ratio_bench-ARM'
src/sim/syscall_emul.cc:86: warn: ignoring syscall mprotect(...)
src/arch/arm/insts/pseudo.cc:174: warn: 	instruction 'unallocated_hint' unimplemented
src/arch/arm/insts/pseudo.cc:174: warn: 	instruction 'bti' unimplemented
src/sim/syscall_emul.hh:816: warn: Unsupported ioctl call (return ENOTTY): ioctl(1, 0x802c542a, ...) @ (0x442bdc=>0x442be0).(0=>1)
elements=1000000 ops=100000 write_ratio=75 seed=1 memory_order=relaxed
elapsed=0.018427 s
read_ops=24945 (1.354 Mop/s)
write_ops=75055 (4.073 Mop/s)
total_ops=100000 (5.427 Mop/s)
read_sum=7111431286016890487
write_sum=17130558444781473672
All simulation events were successful.
Done with the simulation after 70.70 seconds of wall clock time!
Running with ISA=ARM, SQ size=64, LQ size=64, write-ratio=75
Global frequency set at 1000000000000 ticks per second
warn: rounding error > tolerance
    29.103830 rounded to 29
warn: rounding error > tolerance
    29.103830 rounded to 29
warn: No dot file generated. Please install pydot to generate the dot file and pdf.
warn: rounding error > tolerance
    29.103830 rounded to 29
src/base/statistics.hh:279: warn: One of the stats is a legacy stat. Legacy stat is a stat that does not belong to any statistics::Group. Legacy stat is deprecated.
src/base/stats/storage.hh:278: warn: Bucket size (4) does not divide range [1:32] into equal-sized buckets. Rounding up.
src/base/stats/storage.hh:278: warn: Bucket size (4) does not divide range [1:8] into equal-sized buckets. Rounding up.
src/base/remote_gdb.cc:418: warn: Sockets disabled, not accepting gdb connections
gem5 Simulator System.  https://www.gem5.org
gem5 is copyrighted software; use the --copyright option for details.

gem5 version 25.1.0.0
gem5 compiled Apr 19 2026 20:34:35
gem5 started Apr 20 2026 14:35:54
gem5 executing on shafin-HP-Laptop-14s-fq1786, pid 41775
command line: ./gem5/build/ALL/gem5.opt rw_ratio_bench.py --binary-path rw_ratio_bench-ARM --isa ARM --sq-size 64 --lq-size 64 --write-ratio 75

info: Standard input is not a terminal, disabling listeners.
Parameters:
  binary-path: rw_ratio_bench-ARM
  write-ratio: 75
  isa: ARM
  rob-size: 512
  lq-size: 64
  sq-size: 64
Running the simulation
Using O3 cpu
src/arch/arm/insts/pseudo.cc:174: warn: 	instruction 'bti' unimplemented
src/sim/syscall_emul.cc:86: warn: ignoring syscall set_robust_list(...)
src/sim/syscall_emul.cc:97: warn: ignoring syscall rseq(...)
      (further warnings will be suppressed)
src/sim/mem_state.cc:443: info: Increasing stack size by one page.
src/sim/syscall_emul.hh:1127: warn: readlink() called on '/proc/self/exe' may yield unexpected results in various settings.
      Returning '/media/shafin/secondary/CXL-consistency-tax/rw_ratio_bench-ARM'
src/sim/syscall_emul.cc:86: warn: ignoring syscall mprotect(...)
src/arch/arm/insts/pseudo.cc:174: warn: 	instruction 'unallocated_hint' unimplemented
src/arch/arm/insts/pseudo.cc:174: warn: 	instruction 'bti' unimplemented
src/sim/syscall_emul.hh:816: warn: Unsupported ioctl call (return ENOTTY): ioctl(1, 0x802c542a, ...) @ (0x442bdc=>0x442be0).(0=>1)
elements=1000000 ops=100000 write_ratio=75 seed=1 memory_order=relaxed
elapsed=0.018427 s
read_ops=24945 (1.354 Mop/s)
write_ops=75055 (4.073 Mop/s)
total_ops=100000 (5.427 Mop/s)
read_sum=7111431286016890487
write_sum=17130558444781473672
All simulation events were successful.
Done with the simulation after 72.01 seconds of wall clock time!
Running with ISA=ARM, SQ size=128, LQ size=128, write-ratio=75
Global frequency set at 1000000000000 ticks per second
warn: rounding error > tolerance
    29.103830 rounded to 29
warn: rounding error > tolerance
    29.103830 rounded to 29
warn: No dot file generated. Please install pydot to generate the dot file and pdf.
warn: rounding error > tolerance
    29.103830 rounded to 29
src/base/statistics.hh:279: warn: One of the stats is a legacy stat. Legacy stat is a stat that does not belong to any statistics::Group. Legacy stat is deprecated.
src/base/stats/storage.hh:278: warn: Bucket size (4) does not divide range [1:32] into equal-sized buckets. Rounding up.
src/base/stats/storage.hh:278: warn: Bucket size (4) does not divide range [1:8] into equal-sized buckets. Rounding up.
src/base/remote_gdb.cc:418: warn: Sockets disabled, not accepting gdb connections
gem5 Simulator System.  https://www.gem5.org
gem5 is copyrighted software; use the --copyright option for details.

gem5 version 25.1.0.0
gem5 compiled Apr 19 2026 20:34:35
gem5 started Apr 20 2026 14:37:07
gem5 executing on shafin-HP-Laptop-14s-fq1786, pid 41842
command line: ./gem5/build/ALL/gem5.opt rw_ratio_bench.py --binary-path rw_ratio_bench-ARM --isa ARM --sq-size 128 --lq-size 128 --write-ratio 75

info: Standard input is not a terminal, disabling listeners.
Parameters:
  binary-path: rw_ratio_bench-ARM
  write-ratio: 75
  isa: ARM
  rob-size: 512
  lq-size: 128
  sq-size: 128
Running the simulation
Using O3 cpu
src/arch/arm/insts/pseudo.cc:174: warn: 	instruction 'bti' unimplemented
src/sim/syscall_emul.cc:86: warn: ignoring syscall set_robust_list(...)
src/sim/syscall_emul.cc:97: warn: ignoring syscall rseq(...)
      (further warnings will be suppressed)
src/sim/mem_state.cc:443: info: Increasing stack size by one page.
src/sim/syscall_emul.hh:1127: warn: readlink() called on '/proc/self/exe' may yield unexpected results in various settings.
      Returning '/media/shafin/secondary/CXL-consistency-tax/rw_ratio_bench-ARM'
src/sim/syscall_emul.cc:86: warn: ignoring syscall mprotect(...)
src/arch/arm/insts/pseudo.cc:174: warn: 	instruction 'unallocated_hint' unimplemented
src/arch/arm/insts/pseudo.cc:174: warn: 	instruction 'bti' unimplemented
src/sim/syscall_emul.hh:816: warn: Unsupported ioctl call (return ENOTTY): ioctl(1, 0x802c542a, ...) @ (0x442bdc=>0x442be0).(0=>1)
elements=1000000 ops=100000 write_ratio=75 seed=1 memory_order=relaxed
elapsed=0.018427 s
read_ops=24945 (1.354 Mop/s)
write_ops=75055 (4.073 Mop/s)
total_ops=100000 (5.427 Mop/s)
read_sum=7111431286016890487
write_sum=17130558444781473672
All simulation events were successful.
Done with the simulation after 72.82 seconds of wall clock time!
Running with ISA=X86, SQ size=8, LQ size=8, write-ratio=75
Global frequency set at 1000000000000 ticks per second
warn: rounding error > tolerance
    29.103830 rounded to 29
warn: rounding error > tolerance
    29.103830 rounded to 29
warn: No dot file generated. Please install pydot to generate the dot file and pdf.
warn: rounding error > tolerance
    29.103830 rounded to 29
src/base/statistics.hh:279: warn: One of the stats is a legacy stat. Legacy stat is a stat that does not belong to any statistics::Group. Legacy stat is deprecated.
src/base/stats/storage.hh:278: warn: Bucket size (4) does not divide range [1:32] into equal-sized buckets. Rounding up.
src/base/stats/storage.hh:278: warn: Bucket size (4) does not divide range [1:8] into equal-sized buckets. Rounding up.
src/base/remote_gdb.cc:418: warn: Sockets disabled, not accepting gdb connections
gem5 Simulator System.  https://www.gem5.org
gem5 is copyrighted software; use the --copyright option for details.

gem5 version 25.1.0.0
gem5 compiled Apr 19 2026 20:34:35
gem5 started Apr 20 2026 14:38:21
gem5 executing on shafin-HP-Laptop-14s-fq1786, pid 41854
command line: ./gem5/build/ALL/gem5.opt rw_ratio_bench.py --binary-path rw_ratio_bench-X86 --isa X86 --sq-size 8 --lq-size 8 --write-ratio 75

info: Standard input is not a terminal, disabling listeners.
Parameters:
  binary-path: rw_ratio_bench-X86
  write-ratio: 75
  isa: X86
  rob-size: 512
  lq-size: 8
  sq-size: 8
Running the simulation
Using O3 cpu
src/sim/syscall_emul.cc:86: warn: ignoring syscall set_robust_list(...)
src/sim/syscall_emul.cc:86: warn: ignoring syscall rseq(...)
src/sim/mem_state.cc:443: info: Increasing stack size by one page.
src/sim/syscall_emul.hh:1127: warn: readlink() called on '/proc/self/exe' may yield unexpected results in various settings.
      Returning '/media/shafin/secondary/CXL-consistency-tax/rw_ratio_bench-X86'
src/sim/syscall_emul.cc:86: warn: ignoring syscall mprotect(...)
elements=1000000 ops=100000 write_ratio=75 seed=1 memory_order=relaxed
elapsed=0.020070 s
read_ops=24945 (1.243 Mop/s)
write_ops=75055 (3.740 Mop/s)
total_ops=100000 (4.983 Mop/s)
read_sum=7111431286016890487
write_sum=17130558444781473672
All simulation events were successful.
Done with the simulation after 99.27 seconds of wall clock time!
Running with ISA=X86, SQ size=16, LQ size=16, write-ratio=75
Global frequency set at 1000000000000 ticks per second
warn: rounding error > tolerance
    29.103830 rounded to 29
warn: rounding error > tolerance
    29.103830 rounded to 29
warn: No dot file generated. Please install pydot to generate the dot file and pdf.
warn: rounding error > tolerance
    29.103830 rounded to 29
src/base/statistics.hh:279: warn: One of the stats is a legacy stat. Legacy stat is a stat that does not belong to any statistics::Group. Legacy stat is deprecated.
src/base/stats/storage.hh:278: warn: Bucket size (4) does not divide range [1:32] into equal-sized buckets. Rounding up.
src/base/stats/storage.hh:278: warn: Bucket size (4) does not divide range [1:8] into equal-sized buckets. Rounding up.
src/base/remote_gdb.cc:418: warn: Sockets disabled, not accepting gdb connections
gem5 Simulator System.  https://www.gem5.org
gem5 is copyrighted software; use the --copyright option for details.

gem5 version 25.1.0.0
gem5 compiled Apr 19 2026 20:34:35
gem5 started Apr 20 2026 14:40:01
gem5 executing on shafin-HP-Laptop-14s-fq1786, pid 41899
command line: ./gem5/build/ALL/gem5.opt rw_ratio_bench.py --binary-path rw_ratio_bench-X86 --isa X86 --sq-size 16 --lq-size 16 --write-ratio 75

info: Standard input is not a terminal, disabling listeners.
Parameters:
  binary-path: rw_ratio_bench-X86
  write-ratio: 75
  isa: X86
  rob-size: 512
  lq-size: 16
  sq-size: 16
Running the simulation
Using O3 cpu
src/sim/syscall_emul.cc:86: warn: ignoring syscall set_robust_list(...)
src/sim/syscall_emul.cc:86: warn: ignoring syscall rseq(...)
src/sim/mem_state.cc:443: info: Increasing stack size by one page.
src/sim/syscall_emul.hh:1127: warn: readlink() called on '/proc/self/exe' may yield unexpected results in various settings.
      Returning '/media/shafin/secondary/CXL-consistency-tax/rw_ratio_bench-X86'
src/sim/syscall_emul.cc:86: warn: ignoring syscall mprotect(...)
elements=1000000 ops=100000 write_ratio=75 seed=1 memory_order=relaxed
elapsed=0.020070 s
read_ops=24945 (1.243 Mop/s)
write_ops=75055 (3.740 Mop/s)
total_ops=100000 (4.983 Mop/s)
read_sum=7111431286016890487
write_sum=17130558444781473672
All simulation events were successful.
Done with the simulation after 99.18 seconds of wall clock time!
Running with ISA=X86, SQ size=32, LQ size=32, write-ratio=75
Global frequency set at 1000000000000 ticks per second
warn: rounding error > tolerance
    29.103830 rounded to 29
warn: rounding error > tolerance
    29.103830 rounded to 29
warn: No dot file generated. Please install pydot to generate the dot file and pdf.
warn: rounding error > tolerance
    29.103830 rounded to 29
src/base/statistics.hh:279: warn: One of the stats is a legacy stat. Legacy stat is a stat that does not belong to any statistics::Group. Legacy stat is deprecated.
src/base/stats/storage.hh:278: warn: Bucket size (4) does not divide range [1:32] into equal-sized buckets. Rounding up.
src/base/stats/storage.hh:278: warn: Bucket size (4) does not divide range [1:8] into equal-sized buckets. Rounding up.
src/base/remote_gdb.cc:418: warn: Sockets disabled, not accepting gdb connections
gem5 Simulator System.  https://www.gem5.org
gem5 is copyrighted software; use the --copyright option for details.

gem5 version 25.1.0.0
gem5 compiled Apr 19 2026 20:34:35
gem5 started Apr 20 2026 14:41:41
gem5 executing on shafin-HP-Laptop-14s-fq1786, pid 41946
command line: ./gem5/build/ALL/gem5.opt rw_ratio_bench.py --binary-path rw_ratio_bench-X86 --isa X86 --sq-size 32 --lq-size 32 --write-ratio 75

info: Standard input is not a terminal, disabling listeners.
Parameters:
  binary-path: rw_ratio_bench-X86
  write-ratio: 75
  isa: X86
  rob-size: 512
  lq-size: 32
  sq-size: 32
Running the simulation
Using O3 cpu
src/sim/syscall_emul.cc:86: warn: ignoring syscall set_robust_list(...)
src/sim/syscall_emul.cc:86: warn: ignoring syscall rseq(...)
src/sim/mem_state.cc:443: info: Increasing stack size by one page.
src/sim/syscall_emul.hh:1127: warn: readlink() called on '/proc/self/exe' may yield unexpected results in various settings.
      Returning '/media/shafin/secondary/CXL-consistency-tax/rw_ratio_bench-X86'
src/sim/syscall_emul.cc:86: warn: ignoring syscall mprotect(...)
elements=1000000 ops=100000 write_ratio=75 seed=1 memory_order=relaxed
elapsed=0.020070 s
read_ops=24945 (1.243 Mop/s)
write_ops=75055 (3.740 Mop/s)
total_ops=100000 (4.983 Mop/s)
read_sum=7111431286016890487
write_sum=17130558444781473672
All simulation events were successful.
Done with the simulation after 96.34 seconds of wall clock time!
Running with ISA=X86, SQ size=64, LQ size=64, write-ratio=75
Global frequency set at 1000000000000 ticks per second
warn: rounding error > tolerance
    29.103830 rounded to 29
warn: rounding error > tolerance
    29.103830 rounded to 29
warn: No dot file generated. Please install pydot to generate the dot file and pdf.
warn: rounding error > tolerance
    29.103830 rounded to 29
src/base/statistics.hh:279: warn: One of the stats is a legacy stat. Legacy stat is a stat that does not belong to any statistics::Group. Legacy stat is deprecated.
src/base/stats/storage.hh:278: warn: Bucket size (4) does not divide range [1:32] into equal-sized buckets. Rounding up.
src/base/stats/storage.hh:278: warn: Bucket size (4) does not divide range [1:8] into equal-sized buckets. Rounding up.
src/base/remote_gdb.cc:418: warn: Sockets disabled, not accepting gdb connections
gem5 Simulator System.  https://www.gem5.org
gem5 is copyrighted software; use the --copyright option for details.

gem5 version 25.1.0.0
gem5 compiled Apr 19 2026 20:34:35
gem5 started Apr 20 2026 14:43:18
gem5 executing on shafin-HP-Laptop-14s-fq1786, pid 41957
command line: ./gem5/build/ALL/gem5.opt rw_ratio_bench.py --binary-path rw_ratio_bench-X86 --isa X86 --sq-size 64 --lq-size 64 --write-ratio 75

info: Standard input is not a terminal, disabling listeners.
Parameters:
  binary-path: rw_ratio_bench-X86
  write-ratio: 75
  isa: X86
  rob-size: 512
  lq-size: 64
  sq-size: 64
Running the simulation
Using O3 cpu
src/sim/syscall_emul.cc:86: warn: ignoring syscall set_robust_list(...)
src/sim/syscall_emul.cc:86: warn: ignoring syscall rseq(...)
src/sim/mem_state.cc:443: info: Increasing stack size by one page.
src/sim/syscall_emul.hh:1127: warn: readlink() called on '/proc/self/exe' may yield unexpected results in various settings.
      Returning '/media/shafin/secondary/CXL-consistency-tax/rw_ratio_bench-X86'
src/sim/syscall_emul.cc:86: warn: ignoring syscall mprotect(...)
elements=1000000 ops=100000 write_ratio=75 seed=1 memory_order=relaxed
elapsed=0.020070 s
read_ops=24945 (1.243 Mop/s)
write_ops=75055 (3.740 Mop/s)
total_ops=100000 (4.983 Mop/s)
read_sum=7111431286016890487
write_sum=17130558444781473672
All simulation events were successful.
Done with the simulation after 98.06 seconds of wall clock time!
Running with ISA=X86, SQ size=128, LQ size=128, write-ratio=75
Global frequency set at 1000000000000 ticks per second
warn: rounding error > tolerance
    29.103830 rounded to 29
warn: rounding error > tolerance
    29.103830 rounded to 29
warn: No dot file generated. Please install pydot to generate the dot file and pdf.
warn: rounding error > tolerance
    29.103830 rounded to 29
src/base/statistics.hh:279: warn: One of the stats is a legacy stat. Legacy stat is a stat that does not belong to any statistics::Group. Legacy stat is deprecated.
src/base/stats/storage.hh:278: warn: Bucket size (4) does not divide range [1:32] into equal-sized buckets. Rounding up.
src/base/stats/storage.hh:278: warn: Bucket size (4) does not divide range [1:8] into equal-sized buckets. Rounding up.
src/base/remote_gdb.cc:418: warn: Sockets disabled, not accepting gdb connections
gem5 Simulator System.  https://www.gem5.org
gem5 is copyrighted software; use the --copyright option for details.

gem5 version 25.1.0.0
gem5 compiled Apr 19 2026 20:34:35
gem5 started Apr 20 2026 14:44:57
gem5 executing on shafin-HP-Laptop-14s-fq1786, pid 42006
command line: ./gem5/build/ALL/gem5.opt rw_ratio_bench.py --binary-path rw_ratio_bench-X86 --isa X86 --sq-size 128 --lq-size 128 --write-ratio 75

info: Standard input is not a terminal, disabling listeners.
Parameters:
  binary-path: rw_ratio_bench-X86
  write-ratio: 75
  isa: X86
  rob-size: 512
  lq-size: 128
  sq-size: 128
Running the simulation
Using O3 cpu
src/sim/syscall_emul.cc:86: warn: ignoring syscall set_robust_list(...)
src/sim/syscall_emul.cc:86: warn: ignoring syscall rseq(...)
src/sim/mem_state.cc:443: info: Increasing stack size by one page.
src/sim/syscall_emul.hh:1127: warn: readlink() called on '/proc/self/exe' may yield unexpected results in various settings.
      Returning '/media/shafin/secondary/CXL-consistency-tax/rw_ratio_bench-X86'
src/sim/syscall_emul.cc:86: warn: ignoring syscall mprotect(...)
elements=1000000 ops=100000 write_ratio=75 seed=1 memory_order=relaxed
elapsed=0.020070 s
read_ops=24945 (1.243 Mop/s)
write_ops=75055 (3.740 Mop/s)
total_ops=100000 (4.983 Mop/s)
read_sum=7111431286016890487
write_sum=17130558444781473672
All simulation events were successful.
Done with the simulation after 98.00 seconds of wall clock time!
