Running with ISA=ARM, SQ size=8, LQ size=8, write-ratio=0, TSO=true
Global frequency set at 1000000000000 ticks per second
warn: rounding error > tolerance
    29.103830 rounded to 29
warn: rounding error > tolerance
    29.103830 rounded to 29
warn: No dot file generated. Please install pydot to generate the dot file and pdf.
warn: rounding error > tolerance
    29.103830 rounded to 29
src/base/statistics.hh:279: warn: One of the stats is a legacy stat. Legacy stat is a stat that does not belong to any statistics::Group. Legacy stat is deprecated.
src/base/stats/storage.hh:278: warn: Bucket size (4) does not divide range [1:32] into equal-sized buckets. Rounding up.
src/base/stats/storage.hh:278: warn: Bucket size (4) does not divide range [1:8] into equal-sized buckets. Rounding up.
src/base/remote_gdb.cc:418: warn: Sockets disabled, not accepting gdb connections
gem5 Simulator System.  https://www.gem5.org
gem5 is copyrighted software; use the --copyright option for details.

gem5 version 25.1.0.1
gem5 compiled Apr 23 2026 03:50:53
gem5 started Apr 23 2026 13:26:40
gem5 executing on shafin-HP-Laptop-14s-fq1786, pid 232137
command line: ./gem5/build/ALL/gem5.opt rw_ratio_bench.py --binary-path rw_ratio_bench-ARM --isa ARM --sq-size 8 --lq-size 8 --write-ratio 0 --needs-tso

info: Standard input is not a terminal, disabling listeners.
Parameters:
  binary-path: rw_ratio_bench-ARM
  write-ratio: 0
  isa: ARM
  rob-size: 512
  lq-size: 8
  sq-size: 8
  needs-tso: True
Running the simulation
Using O3 cpu
src/arch/arm/insts/pseudo.cc:174: warn: 	instruction 'bti' unimplemented
src/sim/syscall_emul.cc:86: warn: ignoring syscall set_robust_list(...)
src/sim/syscall_emul.cc:97: warn: ignoring syscall rseq(...)
      (further warnings will be suppressed)
src/sim/mem_state.cc:443: info: Increasing stack size by one page.
src/sim/syscall_emul.hh:1127: warn: readlink() called on '/proc/self/exe' may yield unexpected results in various settings.
      Returning '/home/shafin/repos/CXL-consistency-tax/rw_ratio_bench-ARM'
src/sim/syscall_emul.cc:86: warn: ignoring syscall mprotect(...)
src/arch/arm/insts/pseudo.cc:174: warn: 	instruction 'unallocated_hint' unimplemented
src/arch/arm/insts/pseudo.cc:174: warn: 	instruction 'bti' unimplemented
src/sim/syscall_emul.hh:816: warn: Unsupported ioctl call (return ENOTTY): ioctl(1, 0x802c542a, ...) @ (0x442a9c=>0x442aa0).(0=>1)
elements=1048576 ops=100000 write_ratio=0 seed=1 memory_order=relaxed
elapsed=0.003643 s
read_ops=100000 (27.447 Mop/s)
write_ops=0 (0.000 Mop/s)
total_ops=100000 (27.447 Mop/s)
All simulation events were successful.
Done with the simulation after 16.27 seconds of wall clock time!
Running with ISA=ARM, SQ size=16, LQ size=16, write-ratio=0, TSO=true
Global frequency set at 1000000000000 ticks per second
warn: rounding error > tolerance
    29.103830 rounded to 29
warn: rounding error > tolerance
    29.103830 rounded to 29
warn: No dot file generated. Please install pydot to generate the dot file and pdf.
warn: rounding error > tolerance
    29.103830 rounded to 29
src/base/statistics.hh:279: warn: One of the stats is a legacy stat. Legacy stat is a stat that does not belong to any statistics::Group. Legacy stat is deprecated.
src/base/stats/storage.hh:278: warn: Bucket size (4) does not divide range [1:32] into equal-sized buckets. Rounding up.
src/base/stats/storage.hh:278: warn: Bucket size (4) does not divide range [1:8] into equal-sized buckets. Rounding up.
src/base/remote_gdb.cc:418: warn: Sockets disabled, not accepting gdb connections
gem5 Simulator System.  https://www.gem5.org
gem5 is copyrighted software; use the --copyright option for details.

gem5 version 25.1.0.1
gem5 compiled Apr 23 2026 03:50:53
gem5 started Apr 23 2026 13:26:57
gem5 executing on shafin-HP-Laptop-14s-fq1786, pid 232345
command line: ./gem5/build/ALL/gem5.opt rw_ratio_bench.py --binary-path rw_ratio_bench-ARM --isa ARM --sq-size 16 --lq-size 16 --write-ratio 0 --needs-tso

info: Standard input is not a terminal, disabling listeners.
Parameters:
  binary-path: rw_ratio_bench-ARM
  write-ratio: 0
  isa: ARM
  rob-size: 512
  lq-size: 16
  sq-size: 16
  needs-tso: True
Running the simulation
Using O3 cpu
src/arch/arm/insts/pseudo.cc:174: warn: 	instruction 'bti' unimplemented
src/sim/syscall_emul.cc:86: warn: ignoring syscall set_robust_list(...)
src/sim/syscall_emul.cc:97: warn: ignoring syscall rseq(...)
      (further warnings will be suppressed)
src/sim/mem_state.cc:443: info: Increasing stack size by one page.
src/sim/syscall_emul.hh:1127: warn: readlink() called on '/proc/self/exe' may yield unexpected results in various settings.
      Returning '/home/shafin/repos/CXL-consistency-tax/rw_ratio_bench-ARM'
src/sim/syscall_emul.cc:86: warn: ignoring syscall mprotect(...)
src/arch/arm/insts/pseudo.cc:174: warn: 	instruction 'unallocated_hint' unimplemented
src/arch/arm/insts/pseudo.cc:174: warn: 	instruction 'bti' unimplemented
src/sim/syscall_emul.hh:816: warn: Unsupported ioctl call (return ENOTTY): ioctl(1, 0x802c542a, ...) @ (0x442a9c=>0x442aa0).(0=>1)
elements=1048576 ops=100000 write_ratio=0 seed=1 memory_order=relaxed
elapsed=0.002604 s
read_ops=100000 (38.401 Mop/s)
write_ops=0 (0.000 Mop/s)
total_ops=100000 (38.401 Mop/s)
All simulation events were successful.
Done with the simulation after 15.06 seconds of wall clock time!
Running with ISA=ARM, SQ size=32, LQ size=32, write-ratio=0, TSO=true
Global frequency set at 1000000000000 ticks per second
warn: rounding error > tolerance
    29.103830 rounded to 29
warn: rounding error > tolerance
    29.103830 rounded to 29
warn: No dot file generated. Please install pydot to generate the dot file and pdf.
warn: rounding error > tolerance
    29.103830 rounded to 29
src/base/statistics.hh:279: warn: One of the stats is a legacy stat. Legacy stat is a stat that does not belong to any statistics::Group. Legacy stat is deprecated.
src/base/stats/storage.hh:278: warn: Bucket size (4) does not divide range [1:32] into equal-sized buckets. Rounding up.
src/base/stats/storage.hh:278: warn: Bucket size (4) does not divide range [1:8] into equal-sized buckets. Rounding up.
src/base/remote_gdb.cc:418: warn: Sockets disabled, not accepting gdb connections
gem5 Simulator System.  https://www.gem5.org
gem5 is copyrighted software; use the --copyright option for details.

gem5 version 25.1.0.1
gem5 compiled Apr 23 2026 03:50:53
gem5 started Apr 23 2026 13:27:13
gem5 executing on shafin-HP-Laptop-14s-fq1786, pid 232601
command line: ./gem5/build/ALL/gem5.opt rw_ratio_bench.py --binary-path rw_ratio_bench-ARM --isa ARM --sq-size 32 --lq-size 32 --write-ratio 0 --needs-tso

info: Standard input is not a terminal, disabling listeners.
Parameters:
  binary-path: rw_ratio_bench-ARM
  write-ratio: 0
  isa: ARM
  rob-size: 512
  lq-size: 32
  sq-size: 32
  needs-tso: True
Running the simulation
Using O3 cpu
src/arch/arm/insts/pseudo.cc:174: warn: 	instruction 'bti' unimplemented
src/sim/syscall_emul.cc:86: warn: ignoring syscall set_robust_list(...)
src/sim/syscall_emul.cc:97: warn: ignoring syscall rseq(...)
      (further warnings will be suppressed)
src/sim/mem_state.cc:443: info: Increasing stack size by one page.
src/sim/syscall_emul.hh:1127: warn: readlink() called on '/proc/self/exe' may yield unexpected results in various settings.
      Returning '/home/shafin/repos/CXL-consistency-tax/rw_ratio_bench-ARM'
src/sim/syscall_emul.cc:86: warn: ignoring syscall mprotect(...)
src/arch/arm/insts/pseudo.cc:174: warn: 	instruction 'unallocated_hint' unimplemented
src/arch/arm/insts/pseudo.cc:174: warn: 	instruction 'bti' unimplemented
src/sim/syscall_emul.hh:816: warn: Unsupported ioctl call (return ENOTTY): ioctl(1, 0x802c542a, ...) @ (0x442a9c=>0x442aa0).(0=>1)
elements=1048576 ops=100000 write_ratio=0 seed=1 memory_order=relaxed
elapsed=0.002604 s
read_ops=100000 (38.401 Mop/s)
write_ops=0 (0.000 Mop/s)
total_ops=100000 (38.401 Mop/s)
All simulation events were successful.
Done with the simulation after 13.86 seconds of wall clock time!
Running with ISA=ARM, SQ size=64, LQ size=64, write-ratio=0, TSO=true
Global frequency set at 1000000000000 ticks per second
warn: rounding error > tolerance
    29.103830 rounded to 29
warn: rounding error > tolerance
    29.103830 rounded to 29
warn: No dot file generated. Please install pydot to generate the dot file and pdf.
warn: rounding error > tolerance
    29.103830 rounded to 29
src/base/statistics.hh:279: warn: One of the stats is a legacy stat. Legacy stat is a stat that does not belong to any statistics::Group. Legacy stat is deprecated.
src/base/stats/storage.hh:278: warn: Bucket size (4) does not divide range [1:32] into equal-sized buckets. Rounding up.
src/base/stats/storage.hh:278: warn: Bucket size (4) does not divide range [1:8] into equal-sized buckets. Rounding up.
src/base/remote_gdb.cc:418: warn: Sockets disabled, not accepting gdb connections
gem5 Simulator System.  https://www.gem5.org
gem5 is copyrighted software; use the --copyright option for details.

gem5 version 25.1.0.1
gem5 compiled Apr 23 2026 03:50:53
gem5 started Apr 23 2026 13:27:28
gem5 executing on shafin-HP-Laptop-14s-fq1786, pid 232755
command line: ./gem5/build/ALL/gem5.opt rw_ratio_bench.py --binary-path rw_ratio_bench-ARM --isa ARM --sq-size 64 --lq-size 64 --write-ratio 0 --needs-tso

info: Standard input is not a terminal, disabling listeners.
Parameters:
  binary-path: rw_ratio_bench-ARM
  write-ratio: 0
  isa: ARM
  rob-size: 512
  lq-size: 64
  sq-size: 64
  needs-tso: True
Running the simulation
Using O3 cpu
src/arch/arm/insts/pseudo.cc:174: warn: 	instruction 'bti' unimplemented
src/sim/syscall_emul.cc:86: warn: ignoring syscall set_robust_list(...)
src/sim/syscall_emul.cc:97: warn: ignoring syscall rseq(...)
      (further warnings will be suppressed)
src/sim/mem_state.cc:443: info: Increasing stack size by one page.
src/sim/syscall_emul.hh:1127: warn: readlink() called on '/proc/self/exe' may yield unexpected results in various settings.
      Returning '/home/shafin/repos/CXL-consistency-tax/rw_ratio_bench-ARM'
src/sim/syscall_emul.cc:86: warn: ignoring syscall mprotect(...)
src/arch/arm/insts/pseudo.cc:174: warn: 	instruction 'unallocated_hint' unimplemented
src/arch/arm/insts/pseudo.cc:174: warn: 	instruction 'bti' unimplemented
src/sim/syscall_emul.hh:816: warn: Unsupported ioctl call (return ENOTTY): ioctl(1, 0x802c542a, ...) @ (0x442a9c=>0x442aa0).(0=>1)
elements=1048576 ops=100000 write_ratio=0 seed=1 memory_order=relaxed
elapsed=0.002604 s
read_ops=100000 (38.401 Mop/s)
write_ops=0 (0.000 Mop/s)
total_ops=100000 (38.401 Mop/s)
All simulation events were successful.
Done with the simulation after 14.14 seconds of wall clock time!
Running with ISA=ARM, SQ size=128, LQ size=128, write-ratio=0, TSO=true
Global frequency set at 1000000000000 ticks per second
warn: rounding error > tolerance
    29.103830 rounded to 29
warn: rounding error > tolerance
    29.103830 rounded to 29
warn: No dot file generated. Please install pydot to generate the dot file and pdf.
warn: rounding error > tolerance
    29.103830 rounded to 29
src/base/statistics.hh:279: warn: One of the stats is a legacy stat. Legacy stat is a stat that does not belong to any statistics::Group. Legacy stat is deprecated.
src/base/stats/storage.hh:278: warn: Bucket size (4) does not divide range [1:32] into equal-sized buckets. Rounding up.
src/base/stats/storage.hh:278: warn: Bucket size (4) does not divide range [1:8] into equal-sized buckets. Rounding up.
src/base/remote_gdb.cc:418: warn: Sockets disabled, not accepting gdb connections
gem5 Simulator System.  https://www.gem5.org
gem5 is copyrighted software; use the --copyright option for details.

gem5 version 25.1.0.1
gem5 compiled Apr 23 2026 03:50:53
gem5 started Apr 23 2026 13:27:43
gem5 executing on shafin-HP-Laptop-14s-fq1786, pid 232942
command line: ./gem5/build/ALL/gem5.opt rw_ratio_bench.py --binary-path rw_ratio_bench-ARM --isa ARM --sq-size 128 --lq-size 128 --write-ratio 0 --needs-tso

info: Standard input is not a terminal, disabling listeners.
Parameters:
  binary-path: rw_ratio_bench-ARM
  write-ratio: 0
  isa: ARM
  rob-size: 512
  lq-size: 128
  sq-size: 128
  needs-tso: True
Running the simulation
Using O3 cpu
src/arch/arm/insts/pseudo.cc:174: warn: 	instruction 'bti' unimplemented
src/sim/syscall_emul.cc:86: warn: ignoring syscall set_robust_list(...)
src/sim/syscall_emul.cc:97: warn: ignoring syscall rseq(...)
      (further warnings will be suppressed)
src/sim/mem_state.cc:443: info: Increasing stack size by one page.
src/sim/syscall_emul.hh:1127: warn: readlink() called on '/proc/self/exe' may yield unexpected results in various settings.
      Returning '/home/shafin/repos/CXL-consistency-tax/rw_ratio_bench-ARM'
src/sim/syscall_emul.cc:86: warn: ignoring syscall mprotect(...)
src/arch/arm/insts/pseudo.cc:174: warn: 	instruction 'unallocated_hint' unimplemented
src/arch/arm/insts/pseudo.cc:174: warn: 	instruction 'bti' unimplemented
src/sim/syscall_emul.hh:816: warn: Unsupported ioctl call (return ENOTTY): ioctl(1, 0x802c542a, ...) @ (0x442a9c=>0x442aa0).(0=>1)
elements=1048576 ops=100000 write_ratio=0 seed=1 memory_order=relaxed
elapsed=0.002604 s
read_ops=100000 (38.401 Mop/s)
write_ops=0 (0.000 Mop/s)
total_ops=100000 (38.401 Mop/s)
All simulation events were successful.
Done with the simulation after 14.50 seconds of wall clock time!
Running with ISA=ARM, SQ size=8, LQ size=8, write-ratio=0, TSO=false
Global frequency set at 1000000000000 ticks per second
warn: rounding error > tolerance
    29.103830 rounded to 29
warn: rounding error > tolerance
    29.103830 rounded to 29
warn: No dot file generated. Please install pydot to generate the dot file and pdf.
warn: rounding error > tolerance
    29.103830 rounded to 29
src/base/statistics.hh:279: warn: One of the stats is a legacy stat. Legacy stat is a stat that does not belong to any statistics::Group. Legacy stat is deprecated.
src/base/stats/storage.hh:278: warn: Bucket size (4) does not divide range [1:32] into equal-sized buckets. Rounding up.
src/base/stats/storage.hh:278: warn: Bucket size (4) does not divide range [1:8] into equal-sized buckets. Rounding up.
src/base/remote_gdb.cc:418: warn: Sockets disabled, not accepting gdb connections
gem5 Simulator System.  https://www.gem5.org
gem5 is copyrighted software; use the --copyright option for details.

gem5 version 25.1.0.1
gem5 compiled Apr 23 2026 03:50:53
gem5 started Apr 23 2026 13:27:58
gem5 executing on shafin-HP-Laptop-14s-fq1786, pid 233181
command line: ./gem5/build/ALL/gem5.opt rw_ratio_bench.py --binary-path rw_ratio_bench-ARM --isa ARM --sq-size 8 --lq-size 8 --write-ratio 0

info: Standard input is not a terminal, disabling listeners.
Parameters:
  binary-path: rw_ratio_bench-ARM
  write-ratio: 0
  isa: ARM
  rob-size: 512
  lq-size: 8
  sq-size: 8
  needs-tso: False
Running the simulation
Using O3 cpu
src/arch/arm/insts/pseudo.cc:174: warn: 	instruction 'bti' unimplemented
src/sim/syscall_emul.cc:86: warn: ignoring syscall set_robust_list(...)
src/sim/syscall_emul.cc:97: warn: ignoring syscall rseq(...)
      (further warnings will be suppressed)
src/sim/mem_state.cc:443: info: Increasing stack size by one page.
src/sim/syscall_emul.hh:1127: warn: readlink() called on '/proc/self/exe' may yield unexpected results in various settings.
      Returning '/home/shafin/repos/CXL-consistency-tax/rw_ratio_bench-ARM'
src/sim/syscall_emul.cc:86: warn: ignoring syscall mprotect(...)
src/arch/arm/insts/pseudo.cc:174: warn: 	instruction 'unallocated_hint' unimplemented
src/arch/arm/insts/pseudo.cc:174: warn: 	instruction 'bti' unimplemented
src/sim/syscall_emul.hh:816: warn: Unsupported ioctl call (return ENOTTY): ioctl(1, 0x802c542a, ...) @ (0x442a9c=>0x442aa0).(0=>1)
elements=1048576 ops=100000 write_ratio=0 seed=1 memory_order=relaxed
elapsed=0.003643 s
read_ops=100000 (27.447 Mop/s)
write_ops=0 (0.000 Mop/s)
total_ops=100000 (27.447 Mop/s)
All simulation events were successful.
Done with the simulation after 16.55 seconds of wall clock time!
Running with ISA=ARM, SQ size=16, LQ size=16, write-ratio=0, TSO=false
Global frequency set at 1000000000000 ticks per second
warn: rounding error > tolerance
    29.103830 rounded to 29
warn: rounding error > tolerance
    29.103830 rounded to 29
warn: No dot file generated. Please install pydot to generate the dot file and pdf.
warn: rounding error > tolerance
    29.103830 rounded to 29
src/base/statistics.hh:279: warn: One of the stats is a legacy stat. Legacy stat is a stat that does not belong to any statistics::Group. Legacy stat is deprecated.
src/base/stats/storage.hh:278: warn: Bucket size (4) does not divide range [1:32] into equal-sized buckets. Rounding up.
src/base/stats/storage.hh:278: warn: Bucket size (4) does not divide range [1:8] into equal-sized buckets. Rounding up.
src/base/remote_gdb.cc:418: warn: Sockets disabled, not accepting gdb connections
gem5 Simulator System.  https://www.gem5.org
gem5 is copyrighted software; use the --copyright option for details.

gem5 version 25.1.0.1
gem5 compiled Apr 23 2026 03:50:53
gem5 started Apr 23 2026 13:28:15
gem5 executing on shafin-HP-Laptop-14s-fq1786, pid 233456
command line: ./gem5/build/ALL/gem5.opt rw_ratio_bench.py --binary-path rw_ratio_bench-ARM --isa ARM --sq-size 16 --lq-size 16 --write-ratio 0

info: Standard input is not a terminal, disabling listeners.
Parameters:
  binary-path: rw_ratio_bench-ARM
  write-ratio: 0
  isa: ARM
  rob-size: 512
  lq-size: 16
  sq-size: 16
  needs-tso: False
Running the simulation
Using O3 cpu
src/arch/arm/insts/pseudo.cc:174: warn: 	instruction 'bti' unimplemented
src/sim/syscall_emul.cc:86: warn: ignoring syscall set_robust_list(...)
src/sim/syscall_emul.cc:97: warn: ignoring syscall rseq(...)
      (further warnings will be suppressed)
src/sim/mem_state.cc:443: info: Increasing stack size by one page.
src/sim/syscall_emul.hh:1127: warn: readlink() called on '/proc/self/exe' may yield unexpected results in various settings.
      Returning '/home/shafin/repos/CXL-consistency-tax/rw_ratio_bench-ARM'
src/sim/syscall_emul.cc:86: warn: ignoring syscall mprotect(...)
src/arch/arm/insts/pseudo.cc:174: warn: 	instruction 'unallocated_hint' unimplemented
src/arch/arm/insts/pseudo.cc:174: warn: 	instruction 'bti' unimplemented
src/sim/syscall_emul.hh:816: warn: Unsupported ioctl call (return ENOTTY): ioctl(1, 0x802c542a, ...) @ (0x442a9c=>0x442aa0).(0=>1)
elements=1048576 ops=100000 write_ratio=0 seed=1 memory_order=relaxed
elapsed=0.002604 s
read_ops=100000 (38.401 Mop/s)
write_ops=0 (0.000 Mop/s)
total_ops=100000 (38.401 Mop/s)
All simulation events were successful.
Done with the simulation after 14.56 seconds of wall clock time!
Running with ISA=ARM, SQ size=32, LQ size=32, write-ratio=0, TSO=false
Global frequency set at 1000000000000 ticks per second
warn: rounding error > tolerance
    29.103830 rounded to 29
warn: rounding error > tolerance
    29.103830 rounded to 29
warn: No dot file generated. Please install pydot to generate the dot file and pdf.
warn: rounding error > tolerance
    29.103830 rounded to 29
src/base/statistics.hh:279: warn: One of the stats is a legacy stat. Legacy stat is a stat that does not belong to any statistics::Group. Legacy stat is deprecated.
src/base/stats/storage.hh:278: warn: Bucket size (4) does not divide range [1:32] into equal-sized buckets. Rounding up.
src/base/stats/storage.hh:278: warn: Bucket size (4) does not divide range [1:8] into equal-sized buckets. Rounding up.
src/base/remote_gdb.cc:418: warn: Sockets disabled, not accepting gdb connections
gem5 Simulator System.  https://www.gem5.org
gem5 is copyrighted software; use the --copyright option for details.

gem5 version 25.1.0.1
gem5 compiled Apr 23 2026 03:50:53
gem5 started Apr 23 2026 13:28:31
gem5 executing on shafin-HP-Laptop-14s-fq1786, pid 233681
command line: ./gem5/build/ALL/gem5.opt rw_ratio_bench.py --binary-path rw_ratio_bench-ARM --isa ARM --sq-size 32 --lq-size 32 --write-ratio 0

info: Standard input is not a terminal, disabling listeners.
Parameters:
  binary-path: rw_ratio_bench-ARM
  write-ratio: 0
  isa: ARM
  rob-size: 512
  lq-size: 32
  sq-size: 32
  needs-tso: False
Running the simulation
Using O3 cpu
src/arch/arm/insts/pseudo.cc:174: warn: 	instruction 'bti' unimplemented
src/sim/syscall_emul.cc:86: warn: ignoring syscall set_robust_list(...)
src/sim/syscall_emul.cc:97: warn: ignoring syscall rseq(...)
      (further warnings will be suppressed)
src/sim/mem_state.cc:443: info: Increasing stack size by one page.
src/sim/syscall_emul.hh:1127: warn: readlink() called on '/proc/self/exe' may yield unexpected results in various settings.
      Returning '/home/shafin/repos/CXL-consistency-tax/rw_ratio_bench-ARM'
src/sim/syscall_emul.cc:86: warn: ignoring syscall mprotect(...)
src/arch/arm/insts/pseudo.cc:174: warn: 	instruction 'unallocated_hint' unimplemented
src/arch/arm/insts/pseudo.cc:174: warn: 	instruction 'bti' unimplemented
src/sim/syscall_emul.hh:816: warn: Unsupported ioctl call (return ENOTTY): ioctl(1, 0x802c542a, ...) @ (0x442a9c=>0x442aa0).(0=>1)
elements=1048576 ops=100000 write_ratio=0 seed=1 memory_order=relaxed
elapsed=0.002604 s
read_ops=100000 (38.401 Mop/s)
write_ops=0 (0.000 Mop/s)
total_ops=100000 (38.401 Mop/s)
All simulation events were successful.
Done with the simulation after 14.32 seconds of wall clock time!
Running with ISA=ARM, SQ size=64, LQ size=64, write-ratio=0, TSO=false
Global frequency set at 1000000000000 ticks per second
warn: rounding error > tolerance
    29.103830 rounded to 29
warn: rounding error > tolerance
    29.103830 rounded to 29
warn: No dot file generated. Please install pydot to generate the dot file and pdf.
warn: rounding error > tolerance
    29.103830 rounded to 29
src/base/statistics.hh:279: warn: One of the stats is a legacy stat. Legacy stat is a stat that does not belong to any statistics::Group. Legacy stat is deprecated.
src/base/stats/storage.hh:278: warn: Bucket size (4) does not divide range [1:32] into equal-sized buckets. Rounding up.
src/base/stats/storage.hh:278: warn: Bucket size (4) does not divide range [1:8] into equal-sized buckets. Rounding up.
src/base/remote_gdb.cc:418: warn: Sockets disabled, not accepting gdb connections
gem5 Simulator System.  https://www.gem5.org
gem5 is copyrighted software; use the --copyright option for details.

gem5 version 25.1.0.1
gem5 compiled Apr 23 2026 03:50:53
gem5 started Apr 23 2026 13:28:46
gem5 executing on shafin-HP-Laptop-14s-fq1786, pid 233828
command line: ./gem5/build/ALL/gem5.opt rw_ratio_bench.py --binary-path rw_ratio_bench-ARM --isa ARM --sq-size 64 --lq-size 64 --write-ratio 0

info: Standard input is not a terminal, disabling listeners.
Parameters:
  binary-path: rw_ratio_bench-ARM
  write-ratio: 0
  isa: ARM
  rob-size: 512
  lq-size: 64
  sq-size: 64
  needs-tso: False
Running the simulation
Using O3 cpu
src/arch/arm/insts/pseudo.cc:174: warn: 	instruction 'bti' unimplemented
src/sim/syscall_emul.cc:86: warn: ignoring syscall set_robust_list(...)
src/sim/syscall_emul.cc:97: warn: ignoring syscall rseq(...)
      (further warnings will be suppressed)
src/sim/mem_state.cc:443: info: Increasing stack size by one page.
src/sim/syscall_emul.hh:1127: warn: readlink() called on '/proc/self/exe' may yield unexpected results in various settings.
      Returning '/home/shafin/repos/CXL-consistency-tax/rw_ratio_bench-ARM'
src/sim/syscall_emul.cc:86: warn: ignoring syscall mprotect(...)
src/arch/arm/insts/pseudo.cc:174: warn: 	instruction 'unallocated_hint' unimplemented
src/arch/arm/insts/pseudo.cc:174: warn: 	instruction 'bti' unimplemented
src/sim/syscall_emul.hh:816: warn: Unsupported ioctl call (return ENOTTY): ioctl(1, 0x802c542a, ...) @ (0x442a9c=>0x442aa0).(0=>1)
elements=1048576 ops=100000 write_ratio=0 seed=1 memory_order=relaxed
elapsed=0.002604 s
read_ops=100000 (38.401 Mop/s)
write_ops=0 (0.000 Mop/s)
total_ops=100000 (38.401 Mop/s)
All simulation events were successful.
Done with the simulation after 14.63 seconds of wall clock time!
Running with ISA=ARM, SQ size=128, LQ size=128, write-ratio=0, TSO=false
Global frequency set at 1000000000000 ticks per second
warn: rounding error > tolerance
    29.103830 rounded to 29
warn: rounding error > tolerance
    29.103830 rounded to 29
warn: No dot file generated. Please install pydot to generate the dot file and pdf.
warn: rounding error > tolerance
    29.103830 rounded to 29
src/base/statistics.hh:279: warn: One of the stats is a legacy stat. Legacy stat is a stat that does not belong to any statistics::Group. Legacy stat is deprecated.
src/base/stats/storage.hh:278: warn: Bucket size (4) does not divide range [1:32] into equal-sized buckets. Rounding up.
src/base/stats/storage.hh:278: warn: Bucket size (4) does not divide range [1:8] into equal-sized buckets. Rounding up.
src/base/remote_gdb.cc:418: warn: Sockets disabled, not accepting gdb connections
gem5 Simulator System.  https://www.gem5.org
gem5 is copyrighted software; use the --copyright option for details.

gem5 version 25.1.0.1
gem5 compiled Apr 23 2026 03:50:53
gem5 started Apr 23 2026 13:29:01
gem5 executing on shafin-HP-Laptop-14s-fq1786, pid 234085
command line: ./gem5/build/ALL/gem5.opt rw_ratio_bench.py --binary-path rw_ratio_bench-ARM --isa ARM --sq-size 128 --lq-size 128 --write-ratio 0

info: Standard input is not a terminal, disabling listeners.
Parameters:
  binary-path: rw_ratio_bench-ARM
  write-ratio: 0
  isa: ARM
  rob-size: 512
  lq-size: 128
  sq-size: 128
  needs-tso: False
Running the simulation
Using O3 cpu
src/arch/arm/insts/pseudo.cc:174: warn: 	instruction 'bti' unimplemented
src/sim/syscall_emul.cc:86: warn: ignoring syscall set_robust_list(...)
src/sim/syscall_emul.cc:97: warn: ignoring syscall rseq(...)
      (further warnings will be suppressed)
src/sim/mem_state.cc:443: info: Increasing stack size by one page.
src/sim/syscall_emul.hh:1127: warn: readlink() called on '/proc/self/exe' may yield unexpected results in various settings.
      Returning '/home/shafin/repos/CXL-consistency-tax/rw_ratio_bench-ARM'
src/sim/syscall_emul.cc:86: warn: ignoring syscall mprotect(...)
src/arch/arm/insts/pseudo.cc:174: warn: 	instruction 'unallocated_hint' unimplemented
src/arch/arm/insts/pseudo.cc:174: warn: 	instruction 'bti' unimplemented
src/sim/syscall_emul.hh:816: warn: Unsupported ioctl call (return ENOTTY): ioctl(1, 0x802c542a, ...) @ (0x442a9c=>0x442aa0).(0=>1)
elements=1048576 ops=100000 write_ratio=0 seed=1 memory_order=relaxed
elapsed=0.002604 s
read_ops=100000 (38.401 Mop/s)
write_ops=0 (0.000 Mop/s)
total_ops=100000 (38.401 Mop/s)
All simulation events were successful.
Done with the simulation after 14.45 seconds of wall clock time!
Running with ISA=ARM, SQ size=8, LQ size=8, write-ratio=100, TSO=true
Global frequency set at 1000000000000 ticks per second
warn: rounding error > tolerance
    29.103830 rounded to 29
warn: rounding error > tolerance
    29.103830 rounded to 29
warn: No dot file generated. Please install pydot to generate the dot file and pdf.
warn: rounding error > tolerance
    29.103830 rounded to 29
src/base/statistics.hh:279: warn: One of the stats is a legacy stat. Legacy stat is a stat that does not belong to any statistics::Group. Legacy stat is deprecated.
src/base/stats/storage.hh:278: warn: Bucket size (4) does not divide range [1:32] into equal-sized buckets. Rounding up.
src/base/stats/storage.hh:278: warn: Bucket size (4) does not divide range [1:8] into equal-sized buckets. Rounding up.
src/base/remote_gdb.cc:418: warn: Sockets disabled, not accepting gdb connections
gem5 Simulator System.  https://www.gem5.org
gem5 is copyrighted software; use the --copyright option for details.

gem5 version 25.1.0.1
gem5 compiled Apr 23 2026 03:50:53
gem5 started Apr 23 2026 13:29:16
gem5 executing on shafin-HP-Laptop-14s-fq1786, pid 234229
command line: ./gem5/build/ALL/gem5.opt rw_ratio_bench.py --binary-path rw_ratio_bench-ARM --isa ARM --sq-size 8 --lq-size 8 --write-ratio 100 --needs-tso

info: Standard input is not a terminal, disabling listeners.
Parameters:
  binary-path: rw_ratio_bench-ARM
  write-ratio: 100
  isa: ARM
  rob-size: 512
  lq-size: 8
  sq-size: 8
  needs-tso: True
Running the simulation
Using O3 cpu
src/arch/arm/insts/pseudo.cc:174: warn: 	instruction 'bti' unimplemented
src/sim/syscall_emul.cc:86: warn: ignoring syscall set_robust_list(...)
src/sim/syscall_emul.cc:97: warn: ignoring syscall rseq(...)
      (further warnings will be suppressed)
src/sim/mem_state.cc:443: info: Increasing stack size by one page.
src/sim/syscall_emul.hh:1127: warn: readlink() called on '/proc/self/exe' may yield unexpected results in various settings.
      Returning '/home/shafin/repos/CXL-consistency-tax/rw_ratio_bench-ARM'
src/sim/syscall_emul.cc:86: warn: ignoring syscall mprotect(...)
src/arch/arm/insts/pseudo.cc:174: warn: 	instruction 'unallocated_hint' unimplemented
src/arch/arm/insts/pseudo.cc:174: warn: 	instruction 'bti' unimplemented
src/sim/syscall_emul.hh:816: warn: Unsupported ioctl call (return ENOTTY): ioctl(1, 0x802c542a, ...) @ (0x442a9c=>0x442aa0).(0=>1)
elements=1048576 ops=100000 write_ratio=100 seed=1 memory_order=relaxed
elapsed=0.025643 s
read_ops=0 (0.000 Mop/s)
write_ops=100000 (3.900 Mop/s)
total_ops=100000 (3.900 Mop/s)
All simulation events were successful.
Done with the simulation after 87.06 seconds of wall clock time!
Running with ISA=ARM, SQ size=16, LQ size=16, write-ratio=100, TSO=true
Global frequency set at 1000000000000 ticks per second
warn: rounding error > tolerance
    29.103830 rounded to 29
warn: rounding error > tolerance
    29.103830 rounded to 29
warn: No dot file generated. Please install pydot to generate the dot file and pdf.
warn: rounding error > tolerance
    29.103830 rounded to 29
src/base/statistics.hh:279: warn: One of the stats is a legacy stat. Legacy stat is a stat that does not belong to any statistics::Group. Legacy stat is deprecated.
src/base/stats/storage.hh:278: warn: Bucket size (4) does not divide range [1:32] into equal-sized buckets. Rounding up.
src/base/stats/storage.hh:278: warn: Bucket size (4) does not divide range [1:8] into equal-sized buckets. Rounding up.
src/base/remote_gdb.cc:418: warn: Sockets disabled, not accepting gdb connections
gem5 Simulator System.  https://www.gem5.org
gem5 is copyrighted software; use the --copyright option for details.

gem5 version 25.1.0.1
gem5 compiled Apr 23 2026 03:50:53
gem5 started Apr 23 2026 13:30:44
gem5 executing on shafin-HP-Laptop-14s-fq1786, pid 235483
command line: ./gem5/build/ALL/gem5.opt rw_ratio_bench.py --binary-path rw_ratio_bench-ARM --isa ARM --sq-size 16 --lq-size 16 --write-ratio 100 --needs-tso

info: Standard input is not a terminal, disabling listeners.
Parameters:
  binary-path: rw_ratio_bench-ARM
  write-ratio: 100
  isa: ARM
  rob-size: 512
  lq-size: 16
  sq-size: 16
  needs-tso: True
Running the simulation
Using O3 cpu
src/arch/arm/insts/pseudo.cc:174: warn: 	instruction 'bti' unimplemented
src/sim/syscall_emul.cc:86: warn: ignoring syscall set_robust_list(...)
src/sim/syscall_emul.cc:97: warn: ignoring syscall rseq(...)
      (further warnings will be suppressed)
src/sim/mem_state.cc:443: info: Increasing stack size by one page.
src/sim/syscall_emul.hh:1127: warn: readlink() called on '/proc/self/exe' may yield unexpected results in various settings.
      Returning '/home/shafin/repos/CXL-consistency-tax/rw_ratio_bench-ARM'
src/sim/syscall_emul.cc:86: warn: ignoring syscall mprotect(...)
src/arch/arm/insts/pseudo.cc:174: warn: 	instruction 'unallocated_hint' unimplemented
src/arch/arm/insts/pseudo.cc:174: warn: 	instruction 'bti' unimplemented
src/sim/syscall_emul.hh:816: warn: Unsupported ioctl call (return ENOTTY): ioctl(1, 0x802c542a, ...) @ (0x442a9c=>0x442aa0).(0=>1)
elements=1048576 ops=100000 write_ratio=100 seed=1 memory_order=relaxed
elapsed=0.025643 s
read_ops=0 (0.000 Mop/s)
write_ops=100000 (3.900 Mop/s)
total_ops=100000 (3.900 Mop/s)
All simulation events were successful.
Done with the simulation after 87.35 seconds of wall clock time!
Running with ISA=ARM, SQ size=32, LQ size=32, write-ratio=100, TSO=true
Global frequency set at 1000000000000 ticks per second
warn: rounding error > tolerance
    29.103830 rounded to 29
warn: rounding error > tolerance
    29.103830 rounded to 29
warn: No dot file generated. Please install pydot to generate the dot file and pdf.
warn: rounding error > tolerance
    29.103830 rounded to 29
src/base/statistics.hh:279: warn: One of the stats is a legacy stat. Legacy stat is a stat that does not belong to any statistics::Group. Legacy stat is deprecated.
src/base/stats/storage.hh:278: warn: Bucket size (4) does not divide range [1:32] into equal-sized buckets. Rounding up.
src/base/stats/storage.hh:278: warn: Bucket size (4) does not divide range [1:8] into equal-sized buckets. Rounding up.
src/base/remote_gdb.cc:418: warn: Sockets disabled, not accepting gdb connections
gem5 Simulator System.  https://www.gem5.org
gem5 is copyrighted software; use the --copyright option for details.

gem5 version 25.1.0.1
gem5 compiled Apr 23 2026 03:50:53
gem5 started Apr 23 2026 13:32:13
gem5 executing on shafin-HP-Laptop-14s-fq1786, pid 236132
command line: ./gem5/build/ALL/gem5.opt rw_ratio_bench.py --binary-path rw_ratio_bench-ARM --isa ARM --sq-size 32 --lq-size 32 --write-ratio 100 --needs-tso

info: Standard input is not a terminal, disabling listeners.
Parameters:
  binary-path: rw_ratio_bench-ARM
  write-ratio: 100
  isa: ARM
  rob-size: 512
  lq-size: 32
  sq-size: 32
  needs-tso: True
Running the simulation
Using O3 cpu
src/arch/arm/insts/pseudo.cc:174: warn: 	instruction 'bti' unimplemented
src/sim/syscall_emul.cc:86: warn: ignoring syscall set_robust_list(...)
src/sim/syscall_emul.cc:97: warn: ignoring syscall rseq(...)
      (further warnings will be suppressed)
src/sim/mem_state.cc:443: info: Increasing stack size by one page.
src/sim/syscall_emul.hh:1127: warn: readlink() called on '/proc/self/exe' may yield unexpected results in various settings.
      Returning '/home/shafin/repos/CXL-consistency-tax/rw_ratio_bench-ARM'
src/sim/syscall_emul.cc:86: warn: ignoring syscall mprotect(...)
src/arch/arm/insts/pseudo.cc:174: warn: 	instruction 'unallocated_hint' unimplemented
src/arch/arm/insts/pseudo.cc:174: warn: 	instruction 'bti' unimplemented
src/sim/syscall_emul.hh:816: warn: Unsupported ioctl call (return ENOTTY): ioctl(1, 0x802c542a, ...) @ (0x442a9c=>0x442aa0).(0=>1)
elements=1048576 ops=100000 write_ratio=100 seed=1 memory_order=relaxed
elapsed=0.025643 s
read_ops=0 (0.000 Mop/s)
write_ops=100000 (3.900 Mop/s)
total_ops=100000 (3.900 Mop/s)
All simulation events were successful.
Done with the simulation after 95.11 seconds of wall clock time!
Running with ISA=ARM, SQ size=64, LQ size=64, write-ratio=100, TSO=true
Global frequency set at 1000000000000 ticks per second
warn: rounding error > tolerance
    29.103830 rounded to 29
warn: rounding error > tolerance
    29.103830 rounded to 29
warn: No dot file generated. Please install pydot to generate the dot file and pdf.
warn: rounding error > tolerance
    29.103830 rounded to 29
src/base/statistics.hh:279: warn: One of the stats is a legacy stat. Legacy stat is a stat that does not belong to any statistics::Group. Legacy stat is deprecated.
src/base/stats/storage.hh:278: warn: Bucket size (4) does not divide range [1:32] into equal-sized buckets. Rounding up.
src/base/stats/storage.hh:278: warn: Bucket size (4) does not divide range [1:8] into equal-sized buckets. Rounding up.
src/base/remote_gdb.cc:418: warn: Sockets disabled, not accepting gdb connections
gem5 Simulator System.  https://www.gem5.org
gem5 is copyrighted software; use the --copyright option for details.

gem5 version 25.1.0.1
gem5 compiled Apr 23 2026 03:50:53
gem5 started Apr 23 2026 13:33:48
gem5 executing on shafin-HP-Laptop-14s-fq1786, pid 236846
command line: ./gem5/build/ALL/gem5.opt rw_ratio_bench.py --binary-path rw_ratio_bench-ARM --isa ARM --sq-size 64 --lq-size 64 --write-ratio 100 --needs-tso

info: Standard input is not a terminal, disabling listeners.
Parameters:
  binary-path: rw_ratio_bench-ARM
  write-ratio: 100
  isa: ARM
  rob-size: 512
  lq-size: 64
  sq-size: 64
  needs-tso: True
Running the simulation
Using O3 cpu
src/arch/arm/insts/pseudo.cc:174: warn: 	instruction 'bti' unimplemented
src/sim/syscall_emul.cc:86: warn: ignoring syscall set_robust_list(...)
src/sim/syscall_emul.cc:97: warn: ignoring syscall rseq(...)
      (further warnings will be suppressed)
src/sim/mem_state.cc:443: info: Increasing stack size by one page.
src/sim/syscall_emul.hh:1127: warn: readlink() called on '/proc/self/exe' may yield unexpected results in various settings.
      Returning '/home/shafin/repos/CXL-consistency-tax/rw_ratio_bench-ARM'
src/sim/syscall_emul.cc:86: warn: ignoring syscall mprotect(...)
src/arch/arm/insts/pseudo.cc:174: warn: 	instruction 'unallocated_hint' unimplemented
src/arch/arm/insts/pseudo.cc:174: warn: 	instruction 'bti' unimplemented
src/sim/syscall_emul.hh:816: warn: Unsupported ioctl call (return ENOTTY): ioctl(1, 0x802c542a, ...) @ (0x442a9c=>0x442aa0).(0=>1)
elements=1048576 ops=100000 write_ratio=100 seed=1 memory_order=relaxed
elapsed=0.025643 s
read_ops=0 (0.000 Mop/s)
write_ops=100000 (3.900 Mop/s)
total_ops=100000 (3.900 Mop/s)
All simulation events were successful.
Done with the simulation after 93.20 seconds of wall clock time!
Running with ISA=ARM, SQ size=128, LQ size=128, write-ratio=100, TSO=true
Global frequency set at 1000000000000 ticks per second
warn: rounding error > tolerance
    29.103830 rounded to 29
warn: rounding error > tolerance
    29.103830 rounded to 29
warn: No dot file generated. Please install pydot to generate the dot file and pdf.
warn: rounding error > tolerance
    29.103830 rounded to 29
src/base/statistics.hh:279: warn: One of the stats is a legacy stat. Legacy stat is a stat that does not belong to any statistics::Group. Legacy stat is deprecated.
src/base/stats/storage.hh:278: warn: Bucket size (4) does not divide range [1:32] into equal-sized buckets. Rounding up.
src/base/stats/storage.hh:278: warn: Bucket size (4) does not divide range [1:8] into equal-sized buckets. Rounding up.
src/base/remote_gdb.cc:418: warn: Sockets disabled, not accepting gdb connections
gem5 Simulator System.  https://www.gem5.org
gem5 is copyrighted software; use the --copyright option for details.

gem5 version 25.1.0.1
gem5 compiled Apr 23 2026 03:50:53
gem5 started Apr 23 2026 13:35:23
gem5 executing on shafin-HP-Laptop-14s-fq1786, pid 237468
command line: ./gem5/build/ALL/gem5.opt rw_ratio_bench.py --binary-path rw_ratio_bench-ARM --isa ARM --sq-size 128 --lq-size 128 --write-ratio 100 --needs-tso

info: Standard input is not a terminal, disabling listeners.
Parameters:
  binary-path: rw_ratio_bench-ARM
  write-ratio: 100
  isa: ARM
  rob-size: 512
  lq-size: 128
  sq-size: 128
  needs-tso: True
Running the simulation
Using O3 cpu
src/arch/arm/insts/pseudo.cc:174: warn: 	instruction 'bti' unimplemented
src/sim/syscall_emul.cc:86: warn: ignoring syscall set_robust_list(...)
src/sim/syscall_emul.cc:97: warn: ignoring syscall rseq(...)
      (further warnings will be suppressed)
src/sim/mem_state.cc:443: info: Increasing stack size by one page.
src/sim/syscall_emul.hh:1127: warn: readlink() called on '/proc/self/exe' may yield unexpected results in various settings.
      Returning '/home/shafin/repos/CXL-consistency-tax/rw_ratio_bench-ARM'
src/sim/syscall_emul.cc:86: warn: ignoring syscall mprotect(...)
src/arch/arm/insts/pseudo.cc:174: warn: 	instruction 'unallocated_hint' unimplemented
src/arch/arm/insts/pseudo.cc:174: warn: 	instruction 'bti' unimplemented
src/sim/syscall_emul.hh:816: warn: Unsupported ioctl call (return ENOTTY): ioctl(1, 0x802c542a, ...) @ (0x442a9c=>0x442aa0).(0=>1)
elements=1048576 ops=100000 write_ratio=100 seed=1 memory_order=relaxed
elapsed=0.025643 s
read_ops=0 (0.000 Mop/s)
write_ops=100000 (3.900 Mop/s)
total_ops=100000 (3.900 Mop/s)
All simulation events were successful.
Done with the simulation after 91.52 seconds of wall clock time!
Running with ISA=ARM, SQ size=8, LQ size=8, write-ratio=100, TSO=false
Global frequency set at 1000000000000 ticks per second
warn: rounding error > tolerance
    29.103830 rounded to 29
warn: rounding error > tolerance
    29.103830 rounded to 29
warn: No dot file generated. Please install pydot to generate the dot file and pdf.
warn: rounding error > tolerance
    29.103830 rounded to 29
src/base/statistics.hh:279: warn: One of the stats is a legacy stat. Legacy stat is a stat that does not belong to any statistics::Group. Legacy stat is deprecated.
src/base/stats/storage.hh:278: warn: Bucket size (4) does not divide range [1:32] into equal-sized buckets. Rounding up.
src/base/stats/storage.hh:278: warn: Bucket size (4) does not divide range [1:8] into equal-sized buckets. Rounding up.
src/base/remote_gdb.cc:418: warn: Sockets disabled, not accepting gdb connections
gem5 Simulator System.  https://www.gem5.org
gem5 is copyrighted software; use the --copyright option for details.

gem5 version 25.1.0.1
gem5 compiled Apr 23 2026 03:50:53
gem5 started Apr 23 2026 13:36:55
gem5 executing on shafin-HP-Laptop-14s-fq1786, pid 238068
command line: ./gem5/build/ALL/gem5.opt rw_ratio_bench.py --binary-path rw_ratio_bench-ARM --isa ARM --sq-size 8 --lq-size 8 --write-ratio 100

info: Standard input is not a terminal, disabling listeners.
Parameters:
  binary-path: rw_ratio_bench-ARM
  write-ratio: 100
  isa: ARM
  rob-size: 512
  lq-size: 8
  sq-size: 8
  needs-tso: False
Running the simulation
Using O3 cpu
src/arch/arm/insts/pseudo.cc:174: warn: 	instruction 'bti' unimplemented
src/sim/syscall_emul.cc:86: warn: ignoring syscall set_robust_list(...)
src/sim/syscall_emul.cc:97: warn: ignoring syscall rseq(...)
      (further warnings will be suppressed)
src/sim/mem_state.cc:443: info: Increasing stack size by one page.
src/sim/syscall_emul.hh:1127: warn: readlink() called on '/proc/self/exe' may yield unexpected results in various settings.
      Returning '/home/shafin/repos/CXL-consistency-tax/rw_ratio_bench-ARM'
src/sim/syscall_emul.cc:86: warn: ignoring syscall mprotect(...)
src/arch/arm/insts/pseudo.cc:174: warn: 	instruction 'unallocated_hint' unimplemented
src/arch/arm/insts/pseudo.cc:174: warn: 	instruction 'bti' unimplemented
src/sim/syscall_emul.hh:816: warn: Unsupported ioctl call (return ENOTTY): ioctl(1, 0x802c542a, ...) @ (0x442a9c=>0x442aa0).(0=>1)
elements=1048576 ops=100000 write_ratio=100 seed=1 memory_order=relaxed
elapsed=0.025643 s
read_ops=0 (0.000 Mop/s)
write_ops=100000 (3.900 Mop/s)
total_ops=100000 (3.900 Mop/s)
All simulation events were successful.
Done with the simulation after 95.25 seconds of wall clock time!
Running with ISA=ARM, SQ size=16, LQ size=16, write-ratio=100, TSO=false
Global frequency set at 1000000000000 ticks per second
warn: rounding error > tolerance
    29.103830 rounded to 29
warn: rounding error > tolerance
    29.103830 rounded to 29
warn: No dot file generated. Please install pydot to generate the dot file and pdf.
warn: rounding error > tolerance
    29.103830 rounded to 29
src/base/statistics.hh:279: warn: One of the stats is a legacy stat. Legacy stat is a stat that does not belong to any statistics::Group. Legacy stat is deprecated.
src/base/stats/storage.hh:278: warn: Bucket size (4) does not divide range [1:32] into equal-sized buckets. Rounding up.
src/base/stats/storage.hh:278: warn: Bucket size (4) does not divide range [1:8] into equal-sized buckets. Rounding up.
src/base/remote_gdb.cc:418: warn: Sockets disabled, not accepting gdb connections
gem5 Simulator System.  https://www.gem5.org
gem5 is copyrighted software; use the --copyright option for details.

gem5 version 25.1.0.1
gem5 compiled Apr 23 2026 03:50:53
gem5 started Apr 23 2026 13:38:31
gem5 executing on shafin-HP-Laptop-14s-fq1786, pid 238598
command line: ./gem5/build/ALL/gem5.opt rw_ratio_bench.py --binary-path rw_ratio_bench-ARM --isa ARM --sq-size 16 --lq-size 16 --write-ratio 100

info: Standard input is not a terminal, disabling listeners.
Parameters:
  binary-path: rw_ratio_bench-ARM
  write-ratio: 100
  isa: ARM
  rob-size: 512
  lq-size: 16
  sq-size: 16
  needs-tso: False
Running the simulation
Using O3 cpu
src/arch/arm/insts/pseudo.cc:174: warn: 	instruction 'bti' unimplemented
src/sim/syscall_emul.cc:86: warn: ignoring syscall set_robust_list(...)
src/sim/syscall_emul.cc:97: warn: ignoring syscall rseq(...)
      (further warnings will be suppressed)
src/sim/mem_state.cc:443: info: Increasing stack size by one page.
src/sim/syscall_emul.hh:1127: warn: readlink() called on '/proc/self/exe' may yield unexpected results in various settings.
      Returning '/home/shafin/repos/CXL-consistency-tax/rw_ratio_bench-ARM'
src/sim/syscall_emul.cc:86: warn: ignoring syscall mprotect(...)
src/arch/arm/insts/pseudo.cc:174: warn: 	instruction 'unallocated_hint' unimplemented
src/arch/arm/insts/pseudo.cc:174: warn: 	instruction 'bti' unimplemented
src/sim/syscall_emul.hh:816: warn: Unsupported ioctl call (return ENOTTY): ioctl(1, 0x802c542a, ...) @ (0x442a9c=>0x442aa0).(0=>1)
elements=1048576 ops=100000 write_ratio=100 seed=1 memory_order=relaxed
elapsed=0.025643 s
read_ops=0 (0.000 Mop/s)
write_ops=100000 (3.900 Mop/s)
total_ops=100000 (3.900 Mop/s)
All simulation events were successful.
Done with the simulation after 89.87 seconds of wall clock time!
Running with ISA=ARM, SQ size=32, LQ size=32, write-ratio=100, TSO=false
Global frequency set at 1000000000000 ticks per second
warn: rounding error > tolerance
    29.103830 rounded to 29
warn: rounding error > tolerance
    29.103830 rounded to 29
warn: No dot file generated. Please install pydot to generate the dot file and pdf.
warn: rounding error > tolerance
    29.103830 rounded to 29
src/base/statistics.hh:279: warn: One of the stats is a legacy stat. Legacy stat is a stat that does not belong to any statistics::Group. Legacy stat is deprecated.
src/base/stats/storage.hh:278: warn: Bucket size (4) does not divide range [1:32] into equal-sized buckets. Rounding up.
src/base/stats/storage.hh:278: warn: Bucket size (4) does not divide range [1:8] into equal-sized buckets. Rounding up.
src/base/remote_gdb.cc:418: warn: Sockets disabled, not accepting gdb connections
gem5 Simulator System.  https://www.gem5.org
gem5 is copyrighted software; use the --copyright option for details.

gem5 version 25.1.0.1
gem5 compiled Apr 23 2026 03:50:53
gem5 started Apr 23 2026 13:40:02
gem5 executing on shafin-HP-Laptop-14s-fq1786, pid 239126
command line: ./gem5/build/ALL/gem5.opt rw_ratio_bench.py --binary-path rw_ratio_bench-ARM --isa ARM --sq-size 32 --lq-size 32 --write-ratio 100

info: Standard input is not a terminal, disabling listeners.
Parameters:
  binary-path: rw_ratio_bench-ARM
  write-ratio: 100
  isa: ARM
  rob-size: 512
  lq-size: 32
  sq-size: 32
  needs-tso: False
Running the simulation
Using O3 cpu
src/arch/arm/insts/pseudo.cc:174: warn: 	instruction 'bti' unimplemented
src/sim/syscall_emul.cc:86: warn: ignoring syscall set_robust_list(...)
src/sim/syscall_emul.cc:97: warn: ignoring syscall rseq(...)
      (further warnings will be suppressed)
src/sim/mem_state.cc:443: info: Increasing stack size by one page.
src/sim/syscall_emul.hh:1127: warn: readlink() called on '/proc/self/exe' may yield unexpected results in various settings.
      Returning '/home/shafin/repos/CXL-consistency-tax/rw_ratio_bench-ARM'
src/sim/syscall_emul.cc:86: warn: ignoring syscall mprotect(...)
src/arch/arm/insts/pseudo.cc:174: warn: 	instruction 'unallocated_hint' unimplemented
src/arch/arm/insts/pseudo.cc:174: warn: 	instruction 'bti' unimplemented
src/sim/syscall_emul.hh:816: warn: Unsupported ioctl call (return ENOTTY): ioctl(1, 0x802c542a, ...) @ (0x442a9c=>0x442aa0).(0=>1)
elements=1048576 ops=100000 write_ratio=100 seed=1 memory_order=relaxed
elapsed=0.025643 s
read_ops=0 (0.000 Mop/s)
write_ops=100000 (3.900 Mop/s)
total_ops=100000 (3.900 Mop/s)
All simulation events were successful.
Done with the simulation after 95.59 seconds of wall clock time!
Running with ISA=ARM, SQ size=64, LQ size=64, write-ratio=100, TSO=false
Global frequency set at 1000000000000 ticks per second
warn: rounding error > tolerance
    29.103830 rounded to 29
warn: rounding error > tolerance
    29.103830 rounded to 29
warn: No dot file generated. Please install pydot to generate the dot file and pdf.
warn: rounding error > tolerance
    29.103830 rounded to 29
src/base/statistics.hh:279: warn: One of the stats is a legacy stat. Legacy stat is a stat that does not belong to any statistics::Group. Legacy stat is deprecated.
src/base/stats/storage.hh:278: warn: Bucket size (4) does not divide range [1:32] into equal-sized buckets. Rounding up.
src/base/stats/storage.hh:278: warn: Bucket size (4) does not divide range [1:8] into equal-sized buckets. Rounding up.
src/base/remote_gdb.cc:418: warn: Sockets disabled, not accepting gdb connections
gem5 Simulator System.  https://www.gem5.org
gem5 is copyrighted software; use the --copyright option for details.

gem5 version 25.1.0.1
gem5 compiled Apr 23 2026 03:50:53
gem5 started Apr 23 2026 13:41:39
gem5 executing on shafin-HP-Laptop-14s-fq1786, pid 239724
command line: ./gem5/build/ALL/gem5.opt rw_ratio_bench.py --binary-path rw_ratio_bench-ARM --isa ARM --sq-size 64 --lq-size 64 --write-ratio 100

info: Standard input is not a terminal, disabling listeners.
Parameters:
  binary-path: rw_ratio_bench-ARM
  write-ratio: 100
  isa: ARM
  rob-size: 512
  lq-size: 64
  sq-size: 64
  needs-tso: False
Running the simulation
Using O3 cpu
src/arch/arm/insts/pseudo.cc:174: warn: 	instruction 'bti' unimplemented
src/sim/syscall_emul.cc:86: warn: ignoring syscall set_robust_list(...)
src/sim/syscall_emul.cc:97: warn: ignoring syscall rseq(...)
      (further warnings will be suppressed)
src/sim/mem_state.cc:443: info: Increasing stack size by one page.
src/sim/syscall_emul.hh:1127: warn: readlink() called on '/proc/self/exe' may yield unexpected results in various settings.
      Returning '/home/shafin/repos/CXL-consistency-tax/rw_ratio_bench-ARM'
src/sim/syscall_emul.cc:86: warn: ignoring syscall mprotect(...)
src/arch/arm/insts/pseudo.cc:174: warn: 	instruction 'unallocated_hint' unimplemented
src/arch/arm/insts/pseudo.cc:174: warn: 	instruction 'bti' unimplemented
src/sim/syscall_emul.hh:816: warn: Unsupported ioctl call (return ENOTTY): ioctl(1, 0x802c542a, ...) @ (0x442a9c=>0x442aa0).(0=>1)
elements=1048576 ops=100000 write_ratio=100 seed=1 memory_order=relaxed
elapsed=0.025643 s
read_ops=0 (0.000 Mop/s)
write_ops=100000 (3.900 Mop/s)
total_ops=100000 (3.900 Mop/s)
All simulation events were successful.
Done with the simulation after 94.93 seconds of wall clock time!
Running with ISA=ARM, SQ size=128, LQ size=128, write-ratio=100, TSO=false
Global frequency set at 1000000000000 ticks per second
warn: rounding error > tolerance
    29.103830 rounded to 29
warn: rounding error > tolerance
    29.103830 rounded to 29
warn: No dot file generated. Please install pydot to generate the dot file and pdf.
warn: rounding error > tolerance
    29.103830 rounded to 29
src/base/statistics.hh:279: warn: One of the stats is a legacy stat. Legacy stat is a stat that does not belong to any statistics::Group. Legacy stat is deprecated.
src/base/stats/storage.hh:278: warn: Bucket size (4) does not divide range [1:32] into equal-sized buckets. Rounding up.
src/base/stats/storage.hh:278: warn: Bucket size (4) does not divide range [1:8] into equal-sized buckets. Rounding up.
src/base/remote_gdb.cc:418: warn: Sockets disabled, not accepting gdb connections
gem5 Simulator System.  https://www.gem5.org
gem5 is copyrighted software; use the --copyright option for details.

gem5 version 25.1.0.1
gem5 compiled Apr 23 2026 03:50:53
gem5 started Apr 23 2026 13:43:15
gem5 executing on shafin-HP-Laptop-14s-fq1786, pid 240259
command line: ./gem5/build/ALL/gem5.opt rw_ratio_bench.py --binary-path rw_ratio_bench-ARM --isa ARM --sq-size 128 --lq-size 128 --write-ratio 100

info: Standard input is not a terminal, disabling listeners.
Parameters:
  binary-path: rw_ratio_bench-ARM
  write-ratio: 100
  isa: ARM
  rob-size: 512
  lq-size: 128
  sq-size: 128
  needs-tso: False
Running the simulation
Using O3 cpu
src/arch/arm/insts/pseudo.cc:174: warn: 	instruction 'bti' unimplemented
src/sim/syscall_emul.cc:86: warn: ignoring syscall set_robust_list(...)
src/sim/syscall_emul.cc:97: warn: ignoring syscall rseq(...)
      (further warnings will be suppressed)
src/sim/mem_state.cc:443: info: Increasing stack size by one page.
src/sim/syscall_emul.hh:1127: warn: readlink() called on '/proc/self/exe' may yield unexpected results in various settings.
      Returning '/home/shafin/repos/CXL-consistency-tax/rw_ratio_bench-ARM'
src/sim/syscall_emul.cc:86: warn: ignoring syscall mprotect(...)
src/arch/arm/insts/pseudo.cc:174: warn: 	instruction 'unallocated_hint' unimplemented
src/arch/arm/insts/pseudo.cc:174: warn: 	instruction 'bti' unimplemented
src/sim/syscall_emul.hh:816: warn: Unsupported ioctl call (return ENOTTY): ioctl(1, 0x802c542a, ...) @ (0x442a9c=>0x442aa0).(0=>1)
elements=1048576 ops=100000 write_ratio=100 seed=1 memory_order=relaxed
elapsed=0.025643 s
read_ops=0 (0.000 Mop/s)
write_ops=100000 (3.900 Mop/s)
total_ops=100000 (3.900 Mop/s)
All simulation events were successful.
Done with the simulation after 94.12 seconds of wall clock time!
Running with ISA=ARM, SQ size=8, LQ size=8, write-ratio=50, TSO=true
Global frequency set at 1000000000000 ticks per second
warn: rounding error > tolerance
    29.103830 rounded to 29
warn: rounding error > tolerance
    29.103830 rounded to 29
warn: No dot file generated. Please install pydot to generate the dot file and pdf.
warn: rounding error > tolerance
    29.103830 rounded to 29
src/base/statistics.hh:279: warn: One of the stats is a legacy stat. Legacy stat is a stat that does not belong to any statistics::Group. Legacy stat is deprecated.
src/base/stats/storage.hh:278: warn: Bucket size (4) does not divide range [1:32] into equal-sized buckets. Rounding up.
src/base/stats/storage.hh:278: warn: Bucket size (4) does not divide range [1:8] into equal-sized buckets. Rounding up.
src/base/remote_gdb.cc:418: warn: Sockets disabled, not accepting gdb connections
gem5 Simulator System.  https://www.gem5.org
gem5 is copyrighted software; use the --copyright option for details.

gem5 version 25.1.0.1
gem5 compiled Apr 23 2026 03:50:53
gem5 started Apr 23 2026 13:44:50
gem5 executing on shafin-HP-Laptop-14s-fq1786, pid 240865
command line: ./gem5/build/ALL/gem5.opt rw_ratio_bench.py --binary-path rw_ratio_bench-ARM --isa ARM --sq-size 8 --lq-size 8 --write-ratio 50 --needs-tso

info: Standard input is not a terminal, disabling listeners.
Parameters:
  binary-path: rw_ratio_bench-ARM
  write-ratio: 50
  isa: ARM
  rob-size: 512
  lq-size: 8
  sq-size: 8
  needs-tso: True
Running the simulation
Using O3 cpu
src/arch/arm/insts/pseudo.cc:174: warn: 	instruction 'bti' unimplemented
src/sim/syscall_emul.cc:86: warn: ignoring syscall set_robust_list(...)
src/sim/syscall_emul.cc:97: warn: ignoring syscall rseq(...)
      (further warnings will be suppressed)
src/sim/mem_state.cc:443: info: Increasing stack size by one page.
src/sim/syscall_emul.hh:1127: warn: readlink() called on '/proc/self/exe' may yield unexpected results in various settings.
      Returning '/home/shafin/repos/CXL-consistency-tax/rw_ratio_bench-ARM'
src/sim/syscall_emul.cc:86: warn: ignoring syscall mprotect(...)
src/arch/arm/insts/pseudo.cc:174: warn: 	instruction 'unallocated_hint' unimplemented
src/arch/arm/insts/pseudo.cc:174: warn: 	instruction 'bti' unimplemented
src/sim/syscall_emul.hh:816: warn: Unsupported ioctl call (return ENOTTY): ioctl(1, 0x802c542a, ...) @ (0x442a9c=>0x442aa0).(0=>1)
elements=1048576 ops=100000 write_ratio=50 seed=1 memory_order=relaxed
elapsed=0.007452 s
read_ops=49841 (6.689 Mop/s)
write_ops=50159 (6.731 Mop/s)
total_ops=100000 (13.420 Mop/s)
All simulation events were successful.
Done with the simulation after 36.06 seconds of wall clock time!
Running with ISA=ARM, SQ size=16, LQ size=16, write-ratio=50, TSO=true
Global frequency set at 1000000000000 ticks per second
warn: rounding error > tolerance
    29.103830 rounded to 29
warn: rounding error > tolerance
    29.103830 rounded to 29
warn: No dot file generated. Please install pydot to generate the dot file and pdf.
warn: rounding error > tolerance
    29.103830 rounded to 29
src/base/statistics.hh:279: warn: One of the stats is a legacy stat. Legacy stat is a stat that does not belong to any statistics::Group. Legacy stat is deprecated.
src/base/stats/storage.hh:278: warn: Bucket size (4) does not divide range [1:32] into equal-sized buckets. Rounding up.
src/base/stats/storage.hh:278: warn: Bucket size (4) does not divide range [1:8] into equal-sized buckets. Rounding up.
src/base/remote_gdb.cc:418: warn: Sockets disabled, not accepting gdb connections
gem5 Simulator System.  https://www.gem5.org
gem5 is copyrighted software; use the --copyright option for details.

gem5 version 25.1.0.1
gem5 compiled Apr 23 2026 03:50:53
gem5 started Apr 23 2026 13:45:26
gem5 executing on shafin-HP-Laptop-14s-fq1786, pid 241096
command line: ./gem5/build/ALL/gem5.opt rw_ratio_bench.py --binary-path rw_ratio_bench-ARM --isa ARM --sq-size 16 --lq-size 16 --write-ratio 50 --needs-tso

info: Standard input is not a terminal, disabling listeners.
Parameters:
  binary-path: rw_ratio_bench-ARM
  write-ratio: 50
  isa: ARM
  rob-size: 512
  lq-size: 16
  sq-size: 16
  needs-tso: True
Running the simulation
Using O3 cpu
src/arch/arm/insts/pseudo.cc:174: warn: 	instruction 'bti' unimplemented
src/sim/syscall_emul.cc:86: warn: ignoring syscall set_robust_list(...)
src/sim/syscall_emul.cc:97: warn: ignoring syscall rseq(...)
      (further warnings will be suppressed)
src/sim/mem_state.cc:443: info: Increasing stack size by one page.
src/sim/syscall_emul.hh:1127: warn: readlink() called on '/proc/self/exe' may yield unexpected results in various settings.
      Returning '/home/shafin/repos/CXL-consistency-tax/rw_ratio_bench-ARM'
src/sim/syscall_emul.cc:86: warn: ignoring syscall mprotect(...)
src/arch/arm/insts/pseudo.cc:174: warn: 	instruction 'unallocated_hint' unimplemented
src/arch/arm/insts/pseudo.cc:174: warn: 	instruction 'bti' unimplemented
src/sim/syscall_emul.hh:816: warn: Unsupported ioctl call (return ENOTTY): ioctl(1, 0x802c542a, ...) @ (0x442a9c=>0x442aa0).(0=>1)
elements=1048576 ops=100000 write_ratio=50 seed=1 memory_order=relaxed
elapsed=0.007315 s
read_ops=49841 (6.814 Mop/s)
write_ops=50159 (6.857 Mop/s)
total_ops=100000 (13.671 Mop/s)
All simulation events were successful.
Done with the simulation after 36.01 seconds of wall clock time!
Running with ISA=ARM, SQ size=32, LQ size=32, write-ratio=50, TSO=true
Global frequency set at 1000000000000 ticks per second
warn: rounding error > tolerance
    29.103830 rounded to 29
warn: rounding error > tolerance
    29.103830 rounded to 29
warn: No dot file generated. Please install pydot to generate the dot file and pdf.
warn: rounding error > tolerance
    29.103830 rounded to 29
src/base/statistics.hh:279: warn: One of the stats is a legacy stat. Legacy stat is a stat that does not belong to any statistics::Group. Legacy stat is deprecated.
src/base/stats/storage.hh:278: warn: Bucket size (4) does not divide range [1:32] into equal-sized buckets. Rounding up.
src/base/stats/storage.hh:278: warn: Bucket size (4) does not divide range [1:8] into equal-sized buckets. Rounding up.
src/base/remote_gdb.cc:418: warn: Sockets disabled, not accepting gdb connections
gem5 Simulator System.  https://www.gem5.org
gem5 is copyrighted software; use the --copyright option for details.

gem5 version 25.1.0.1
gem5 compiled Apr 23 2026 03:50:53
gem5 started Apr 23 2026 13:46:03
gem5 executing on shafin-HP-Laptop-14s-fq1786, pid 241325
command line: ./gem5/build/ALL/gem5.opt rw_ratio_bench.py --binary-path rw_ratio_bench-ARM --isa ARM --sq-size 32 --lq-size 32 --write-ratio 50 --needs-tso

info: Standard input is not a terminal, disabling listeners.
Parameters:
  binary-path: rw_ratio_bench-ARM
  write-ratio: 50
  isa: ARM
  rob-size: 512
  lq-size: 32
  sq-size: 32
  needs-tso: True
Running the simulation
Using O3 cpu
src/arch/arm/insts/pseudo.cc:174: warn: 	instruction 'bti' unimplemented
src/sim/syscall_emul.cc:86: warn: ignoring syscall set_robust_list(...)
src/sim/syscall_emul.cc:97: warn: ignoring syscall rseq(...)
      (further warnings will be suppressed)
src/sim/mem_state.cc:443: info: Increasing stack size by one page.
src/sim/syscall_emul.hh:1127: warn: readlink() called on '/proc/self/exe' may yield unexpected results in various settings.
      Returning '/home/shafin/repos/CXL-consistency-tax/rw_ratio_bench-ARM'
src/sim/syscall_emul.cc:86: warn: ignoring syscall mprotect(...)
src/arch/arm/insts/pseudo.cc:174: warn: 	instruction 'unallocated_hint' unimplemented
src/arch/arm/insts/pseudo.cc:174: warn: 	instruction 'bti' unimplemented
src/sim/syscall_emul.hh:816: warn: Unsupported ioctl call (return ENOTTY): ioctl(1, 0x802c542a, ...) @ (0x442a9c=>0x442aa0).(0=>1)
elements=1048576 ops=100000 write_ratio=50 seed=1 memory_order=relaxed
elapsed=0.007315 s
read_ops=49841 (6.814 Mop/s)
write_ops=50159 (6.857 Mop/s)
total_ops=100000 (13.671 Mop/s)
All simulation events were successful.
Done with the simulation after 36.00 seconds of wall clock time!
Running with ISA=ARM, SQ size=64, LQ size=64, write-ratio=50, TSO=true
Global frequency set at 1000000000000 ticks per second
warn: rounding error > tolerance
    29.103830 rounded to 29
warn: rounding error > tolerance
    29.103830 rounded to 29
warn: No dot file generated. Please install pydot to generate the dot file and pdf.
warn: rounding error > tolerance
    29.103830 rounded to 29
src/base/statistics.hh:279: warn: One of the stats is a legacy stat. Legacy stat is a stat that does not belong to any statistics::Group. Legacy stat is deprecated.
src/base/stats/storage.hh:278: warn: Bucket size (4) does not divide range [1:32] into equal-sized buckets. Rounding up.
src/base/stats/storage.hh:278: warn: Bucket size (4) does not divide range [1:8] into equal-sized buckets. Rounding up.
src/base/remote_gdb.cc:418: warn: Sockets disabled, not accepting gdb connections
gem5 Simulator System.  https://www.gem5.org
gem5 is copyrighted software; use the --copyright option for details.

gem5 version 25.1.0.1
gem5 compiled Apr 23 2026 03:50:53
gem5 started Apr 23 2026 13:46:40
gem5 executing on shafin-HP-Laptop-14s-fq1786, pid 241516
command line: ./gem5/build/ALL/gem5.opt rw_ratio_bench.py --binary-path rw_ratio_bench-ARM --isa ARM --sq-size 64 --lq-size 64 --write-ratio 50 --needs-tso

info: Standard input is not a terminal, disabling listeners.
Parameters:
  binary-path: rw_ratio_bench-ARM
  write-ratio: 50
  isa: ARM
  rob-size: 512
  lq-size: 64
  sq-size: 64
  needs-tso: True
Running the simulation
Using O3 cpu
src/arch/arm/insts/pseudo.cc:174: warn: 	instruction 'bti' unimplemented
src/sim/syscall_emul.cc:86: warn: ignoring syscall set_robust_list(...)
src/sim/syscall_emul.cc:97: warn: ignoring syscall rseq(...)
      (further warnings will be suppressed)
src/sim/mem_state.cc:443: info: Increasing stack size by one page.
src/sim/syscall_emul.hh:1127: warn: readlink() called on '/proc/self/exe' may yield unexpected results in various settings.
      Returning '/home/shafin/repos/CXL-consistency-tax/rw_ratio_bench-ARM'
src/sim/syscall_emul.cc:86: warn: ignoring syscall mprotect(...)
src/arch/arm/insts/pseudo.cc:174: warn: 	instruction 'unallocated_hint' unimplemented
src/arch/arm/insts/pseudo.cc:174: warn: 	instruction 'bti' unimplemented
src/sim/syscall_emul.hh:816: warn: Unsupported ioctl call (return ENOTTY): ioctl(1, 0x802c542a, ...) @ (0x442a9c=>0x442aa0).(0=>1)
elements=1048576 ops=100000 write_ratio=50 seed=1 memory_order=relaxed
elapsed=0.007315 s
read_ops=49841 (6.814 Mop/s)
write_ops=50159 (6.857 Mop/s)
total_ops=100000 (13.671 Mop/s)
All simulation events were successful.
Done with the simulation after 35.86 seconds of wall clock time!
Running with ISA=ARM, SQ size=128, LQ size=128, write-ratio=50, TSO=true
Global frequency set at 1000000000000 ticks per second
warn: rounding error > tolerance
    29.103830 rounded to 29
warn: rounding error > tolerance
    29.103830 rounded to 29
warn: No dot file generated. Please install pydot to generate the dot file and pdf.
warn: rounding error > tolerance
    29.103830 rounded to 29
src/base/statistics.hh:279: warn: One of the stats is a legacy stat. Legacy stat is a stat that does not belong to any statistics::Group. Legacy stat is deprecated.
src/base/stats/storage.hh:278: warn: Bucket size (4) does not divide range [1:32] into equal-sized buckets. Rounding up.
src/base/stats/storage.hh:278: warn: Bucket size (4) does not divide range [1:8] into equal-sized buckets. Rounding up.
src/base/remote_gdb.cc:418: warn: Sockets disabled, not accepting gdb connections
gem5 Simulator System.  https://www.gem5.org
gem5 is copyrighted software; use the --copyright option for details.

gem5 version 25.1.0.1
gem5 compiled Apr 23 2026 03:50:53
gem5 started Apr 23 2026 13:47:17
gem5 executing on shafin-HP-Laptop-14s-fq1786, pid 241749
command line: ./gem5/build/ALL/gem5.opt rw_ratio_bench.py --binary-path rw_ratio_bench-ARM --isa ARM --sq-size 128 --lq-size 128 --write-ratio 50 --needs-tso

info: Standard input is not a terminal, disabling listeners.
Parameters:
  binary-path: rw_ratio_bench-ARM
  write-ratio: 50
  isa: ARM
  rob-size: 512
  lq-size: 128
  sq-size: 128
  needs-tso: True
Running the simulation
Using O3 cpu
src/arch/arm/insts/pseudo.cc:174: warn: 	instruction 'bti' unimplemented
src/sim/syscall_emul.cc:86: warn: ignoring syscall set_robust_list(...)
src/sim/syscall_emul.cc:97: warn: ignoring syscall rseq(...)
      (further warnings will be suppressed)
src/sim/mem_state.cc:443: info: Increasing stack size by one page.
src/sim/syscall_emul.hh:1127: warn: readlink() called on '/proc/self/exe' may yield unexpected results in various settings.
      Returning '/home/shafin/repos/CXL-consistency-tax/rw_ratio_bench-ARM'
src/sim/syscall_emul.cc:86: warn: ignoring syscall mprotect(...)
src/arch/arm/insts/pseudo.cc:174: warn: 	instruction 'unallocated_hint' unimplemented
src/arch/arm/insts/pseudo.cc:174: warn: 	instruction 'bti' unimplemented
src/sim/syscall_emul.hh:816: warn: Unsupported ioctl call (return ENOTTY): ioctl(1, 0x802c542a, ...) @ (0x442a9c=>0x442aa0).(0=>1)
elements=1048576 ops=100000 write_ratio=50 seed=1 memory_order=relaxed
elapsed=0.007315 s
read_ops=49841 (6.814 Mop/s)
write_ops=50159 (6.857 Mop/s)
total_ops=100000 (13.671 Mop/s)
All simulation events were successful.
Done with the simulation after 36.23 seconds of wall clock time!
Running with ISA=ARM, SQ size=8, LQ size=8, write-ratio=50, TSO=false
Global frequency set at 1000000000000 ticks per second
warn: rounding error > tolerance
    29.103830 rounded to 29
warn: rounding error > tolerance
    29.103830 rounded to 29
warn: No dot file generated. Please install pydot to generate the dot file and pdf.
warn: rounding error > tolerance
    29.103830 rounded to 29
src/base/statistics.hh:279: warn: One of the stats is a legacy stat. Legacy stat is a stat that does not belong to any statistics::Group. Legacy stat is deprecated.
src/base/stats/storage.hh:278: warn: Bucket size (4) does not divide range [1:32] into equal-sized buckets. Rounding up.
src/base/stats/storage.hh:278: warn: Bucket size (4) does not divide range [1:8] into equal-sized buckets. Rounding up.
src/base/remote_gdb.cc:418: warn: Sockets disabled, not accepting gdb connections
gem5 Simulator System.  https://www.gem5.org
gem5 is copyrighted software; use the --copyright option for details.

gem5 version 25.1.0.1
gem5 compiled Apr 23 2026 03:50:53
gem5 started Apr 23 2026 13:47:54
gem5 executing on shafin-HP-Laptop-14s-fq1786, pid 241948
command line: ./gem5/build/ALL/gem5.opt rw_ratio_bench.py --binary-path rw_ratio_bench-ARM --isa ARM --sq-size 8 --lq-size 8 --write-ratio 50

info: Standard input is not a terminal, disabling listeners.
Parameters:
  binary-path: rw_ratio_bench-ARM
  write-ratio: 50
  isa: ARM
  rob-size: 512
  lq-size: 8
  sq-size: 8
  needs-tso: False
Running the simulation
Using O3 cpu
src/arch/arm/insts/pseudo.cc:174: warn: 	instruction 'bti' unimplemented
src/sim/syscall_emul.cc:86: warn: ignoring syscall set_robust_list(...)
src/sim/syscall_emul.cc:97: warn: ignoring syscall rseq(...)
      (further warnings will be suppressed)
src/sim/mem_state.cc:443: info: Increasing stack size by one page.
src/sim/syscall_emul.hh:1127: warn: readlink() called on '/proc/self/exe' may yield unexpected results in various settings.
      Returning '/home/shafin/repos/CXL-consistency-tax/rw_ratio_bench-ARM'
src/sim/syscall_emul.cc:86: warn: ignoring syscall mprotect(...)
src/arch/arm/insts/pseudo.cc:174: warn: 	instruction 'unallocated_hint' unimplemented
src/arch/arm/insts/pseudo.cc:174: warn: 	instruction 'bti' unimplemented
src/sim/syscall_emul.hh:816: warn: Unsupported ioctl call (return ENOTTY): ioctl(1, 0x802c542a, ...) @ (0x442a9c=>0x442aa0).(0=>1)
elements=1048576 ops=100000 write_ratio=50 seed=1 memory_order=relaxed
elapsed=0.007452 s
read_ops=49841 (6.689 Mop/s)
write_ops=50159 (6.731 Mop/s)
total_ops=100000 (13.420 Mop/s)
All simulation events were successful.
Done with the simulation after 35.10 seconds of wall clock time!
Running with ISA=ARM, SQ size=16, LQ size=16, write-ratio=50, TSO=false
Global frequency set at 1000000000000 ticks per second
warn: rounding error > tolerance
    29.103830 rounded to 29
warn: rounding error > tolerance
    29.103830 rounded to 29
warn: No dot file generated. Please install pydot to generate the dot file and pdf.
warn: rounding error > tolerance
    29.103830 rounded to 29
src/base/statistics.hh:279: warn: One of the stats is a legacy stat. Legacy stat is a stat that does not belong to any statistics::Group. Legacy stat is deprecated.
src/base/stats/storage.hh:278: warn: Bucket size (4) does not divide range [1:32] into equal-sized buckets. Rounding up.
src/base/stats/storage.hh:278: warn: Bucket size (4) does not divide range [1:8] into equal-sized buckets. Rounding up.
src/base/remote_gdb.cc:418: warn: Sockets disabled, not accepting gdb connections
gem5 Simulator System.  https://www.gem5.org
gem5 is copyrighted software; use the --copyright option for details.

gem5 version 25.1.0.1
gem5 compiled Apr 23 2026 03:50:53
gem5 started Apr 23 2026 13:48:30
gem5 executing on shafin-HP-Laptop-14s-fq1786, pid 242140
command line: ./gem5/build/ALL/gem5.opt rw_ratio_bench.py --binary-path rw_ratio_bench-ARM --isa ARM --sq-size 16 --lq-size 16 --write-ratio 50

info: Standard input is not a terminal, disabling listeners.
Parameters:
  binary-path: rw_ratio_bench-ARM
  write-ratio: 50
  isa: ARM
  rob-size: 512
  lq-size: 16
  sq-size: 16
  needs-tso: False
Running the simulation
Using O3 cpu
src/arch/arm/insts/pseudo.cc:174: warn: 	instruction 'bti' unimplemented
src/sim/syscall_emul.cc:86: warn: ignoring syscall set_robust_list(...)
src/sim/syscall_emul.cc:97: warn: ignoring syscall rseq(...)
      (further warnings will be suppressed)
src/sim/mem_state.cc:443: info: Increasing stack size by one page.
src/sim/syscall_emul.hh:1127: warn: readlink() called on '/proc/self/exe' may yield unexpected results in various settings.
      Returning '/home/shafin/repos/CXL-consistency-tax/rw_ratio_bench-ARM'
src/sim/syscall_emul.cc:86: warn: ignoring syscall mprotect(...)
src/arch/arm/insts/pseudo.cc:174: warn: 	instruction 'unallocated_hint' unimplemented
src/arch/arm/insts/pseudo.cc:174: warn: 	instruction 'bti' unimplemented
src/sim/syscall_emul.hh:816: warn: Unsupported ioctl call (return ENOTTY): ioctl(1, 0x802c542a, ...) @ (0x442a9c=>0x442aa0).(0=>1)
elements=1048576 ops=100000 write_ratio=50 seed=1 memory_order=relaxed
elapsed=0.007315 s
read_ops=49841 (6.814 Mop/s)
write_ops=50159 (6.857 Mop/s)
total_ops=100000 (13.671 Mop/s)
All simulation events were successful.
Done with the simulation after 34.65 seconds of wall clock time!
Running with ISA=ARM, SQ size=32, LQ size=32, write-ratio=50, TSO=false
Global frequency set at 1000000000000 ticks per second
warn: rounding error > tolerance
    29.103830 rounded to 29
warn: rounding error > tolerance
    29.103830 rounded to 29
warn: No dot file generated. Please install pydot to generate the dot file and pdf.
warn: rounding error > tolerance
    29.103830 rounded to 29
src/base/statistics.hh:279: warn: One of the stats is a legacy stat. Legacy stat is a stat that does not belong to any statistics::Group. Legacy stat is deprecated.
src/base/stats/storage.hh:278: warn: Bucket size (4) does not divide range [1:32] into equal-sized buckets. Rounding up.
src/base/stats/storage.hh:278: warn: Bucket size (4) does not divide range [1:8] into equal-sized buckets. Rounding up.
src/base/remote_gdb.cc:418: warn: Sockets disabled, not accepting gdb connections
gem5 Simulator System.  https://www.gem5.org
gem5 is copyrighted software; use the --copyright option for details.

gem5 version 25.1.0.1
gem5 compiled Apr 23 2026 03:50:53
gem5 started Apr 23 2026 13:49:05
gem5 executing on shafin-HP-Laptop-14s-fq1786, pid 242342
command line: ./gem5/build/ALL/gem5.opt rw_ratio_bench.py --binary-path rw_ratio_bench-ARM --isa ARM --sq-size 32 --lq-size 32 --write-ratio 50

info: Standard input is not a terminal, disabling listeners.
Parameters:
  binary-path: rw_ratio_bench-ARM
  write-ratio: 50
  isa: ARM
  rob-size: 512
  lq-size: 32
  sq-size: 32
  needs-tso: False
Running the simulation
Using O3 cpu
src/arch/arm/insts/pseudo.cc:174: warn: 	instruction 'bti' unimplemented
src/sim/syscall_emul.cc:86: warn: ignoring syscall set_robust_list(...)
src/sim/syscall_emul.cc:97: warn: ignoring syscall rseq(...)
      (further warnings will be suppressed)
src/sim/mem_state.cc:443: info: Increasing stack size by one page.
src/sim/syscall_emul.hh:1127: warn: readlink() called on '/proc/self/exe' may yield unexpected results in various settings.
      Returning '/home/shafin/repos/CXL-consistency-tax/rw_ratio_bench-ARM'
src/sim/syscall_emul.cc:86: warn: ignoring syscall mprotect(...)
src/arch/arm/insts/pseudo.cc:174: warn: 	instruction 'unallocated_hint' unimplemented
src/arch/arm/insts/pseudo.cc:174: warn: 	instruction 'bti' unimplemented
src/sim/syscall_emul.hh:816: warn: Unsupported ioctl call (return ENOTTY): ioctl(1, 0x802c542a, ...) @ (0x442a9c=>0x442aa0).(0=>1)
elements=1048576 ops=100000 write_ratio=50 seed=1 memory_order=relaxed
elapsed=0.007315 s
read_ops=49841 (6.814 Mop/s)
write_ops=50159 (6.857 Mop/s)
total_ops=100000 (13.671 Mop/s)
All simulation events were successful.
Done with the simulation after 37.35 seconds of wall clock time!
Running with ISA=ARM, SQ size=64, LQ size=64, write-ratio=50, TSO=false
Global frequency set at 1000000000000 ticks per second
warn: rounding error > tolerance
    29.103830 rounded to 29
warn: rounding error > tolerance
    29.103830 rounded to 29
warn: No dot file generated. Please install pydot to generate the dot file and pdf.
warn: rounding error > tolerance
    29.103830 rounded to 29
src/base/statistics.hh:279: warn: One of the stats is a legacy stat. Legacy stat is a stat that does not belong to any statistics::Group. Legacy stat is deprecated.
src/base/stats/storage.hh:278: warn: Bucket size (4) does not divide range [1:32] into equal-sized buckets. Rounding up.
src/base/stats/storage.hh:278: warn: Bucket size (4) does not divide range [1:8] into equal-sized buckets. Rounding up.
src/base/remote_gdb.cc:418: warn: Sockets disabled, not accepting gdb connections
gem5 Simulator System.  https://www.gem5.org
gem5 is copyrighted software; use the --copyright option for details.

gem5 version 25.1.0.1
gem5 compiled Apr 23 2026 03:50:53
gem5 started Apr 23 2026 13:49:44
gem5 executing on shafin-HP-Laptop-14s-fq1786, pid 242572
command line: ./gem5/build/ALL/gem5.opt rw_ratio_bench.py --binary-path rw_ratio_bench-ARM --isa ARM --sq-size 64 --lq-size 64 --write-ratio 50

info: Standard input is not a terminal, disabling listeners.
Parameters:
  binary-path: rw_ratio_bench-ARM
  write-ratio: 50
  isa: ARM
  rob-size: 512
  lq-size: 64
  sq-size: 64
  needs-tso: False
Running the simulation
Using O3 cpu
src/arch/arm/insts/pseudo.cc:174: warn: 	instruction 'bti' unimplemented
src/sim/syscall_emul.cc:86: warn: ignoring syscall set_robust_list(...)
src/sim/syscall_emul.cc:97: warn: ignoring syscall rseq(...)
      (further warnings will be suppressed)
src/sim/mem_state.cc:443: info: Increasing stack size by one page.
src/sim/syscall_emul.hh:1127: warn: readlink() called on '/proc/self/exe' may yield unexpected results in various settings.
      Returning '/home/shafin/repos/CXL-consistency-tax/rw_ratio_bench-ARM'
src/sim/syscall_emul.cc:86: warn: ignoring syscall mprotect(...)
src/arch/arm/insts/pseudo.cc:174: warn: 	instruction 'unallocated_hint' unimplemented
src/arch/arm/insts/pseudo.cc:174: warn: 	instruction 'bti' unimplemented
src/sim/syscall_emul.hh:816: warn: Unsupported ioctl call (return ENOTTY): ioctl(1, 0x802c542a, ...) @ (0x442a9c=>0x442aa0).(0=>1)
elements=1048576 ops=100000 write_ratio=50 seed=1 memory_order=relaxed
elapsed=0.007315 s
read_ops=49841 (6.814 Mop/s)
write_ops=50159 (6.857 Mop/s)
total_ops=100000 (13.671 Mop/s)
All simulation events were successful.
Done with the simulation after 36.92 seconds of wall clock time!
Running with ISA=ARM, SQ size=128, LQ size=128, write-ratio=50, TSO=false
Global frequency set at 1000000000000 ticks per second
warn: rounding error > tolerance
    29.103830 rounded to 29
warn: rounding error > tolerance
    29.103830 rounded to 29
warn: No dot file generated. Please install pydot to generate the dot file and pdf.
warn: rounding error > tolerance
    29.103830 rounded to 29
src/base/statistics.hh:279: warn: One of the stats is a legacy stat. Legacy stat is a stat that does not belong to any statistics::Group. Legacy stat is deprecated.
src/base/stats/storage.hh:278: warn: Bucket size (4) does not divide range [1:32] into equal-sized buckets. Rounding up.
src/base/stats/storage.hh:278: warn: Bucket size (4) does not divide range [1:8] into equal-sized buckets. Rounding up.
src/base/remote_gdb.cc:418: warn: Sockets disabled, not accepting gdb connections
gem5 Simulator System.  https://www.gem5.org
gem5 is copyrighted software; use the --copyright option for details.

gem5 version 25.1.0.1
gem5 compiled Apr 23 2026 03:50:53
gem5 started Apr 23 2026 13:50:21
gem5 executing on shafin-HP-Laptop-14s-fq1786, pid 242872
command line: ./gem5/build/ALL/gem5.opt rw_ratio_bench.py --binary-path rw_ratio_bench-ARM --isa ARM --sq-size 128 --lq-size 128 --write-ratio 50

info: Standard input is not a terminal, disabling listeners.
Parameters:
  binary-path: rw_ratio_bench-ARM
  write-ratio: 50
  isa: ARM
  rob-size: 512
  lq-size: 128
  sq-size: 128
  needs-tso: False
Running the simulation
Using O3 cpu
src/arch/arm/insts/pseudo.cc:174: warn: 	instruction 'bti' unimplemented
src/sim/syscall_emul.cc:86: warn: ignoring syscall set_robust_list(...)
src/sim/syscall_emul.cc:97: warn: ignoring syscall rseq(...)
      (further warnings will be suppressed)
src/sim/mem_state.cc:443: info: Increasing stack size by one page.
src/sim/syscall_emul.hh:1127: warn: readlink() called on '/proc/self/exe' may yield unexpected results in various settings.
      Returning '/home/shafin/repos/CXL-consistency-tax/rw_ratio_bench-ARM'
[...]
Running the simulation
Using O3 cpu
src/arch/arm/insts/pseudo.cc:174: warn: 	instruction 'bti' unimplemented
src/sim/syscall_emul.cc:86: warn: ignoring syscall set_robust_list(...)
src/sim/syscall_emul.cc:97: warn: ignoring syscall rseq(...)
      (further warnings will be suppressed)
src/sim/mem_state.cc:443: info: Increasing stack size by one page.
src/sim/syscall_emul.hh:1127: warn: readlink() called on '/proc/self/exe' may yield unexpected results in various settings.
      Returning '/home/shafin/repos/CXL-consistency-tax/rw_ratio_bench-ARM'
src/sim/syscall_emul.cc:86: warn: ignoring syscall mprotect(...)
src/arch/arm/insts/pseudo.cc:174: warn: 	instruction 'unallocated_hint' unimplemented
src/arch/arm/insts/pseudo.cc:174: warn: 	instruction 'bti' unimplemented
src/sim/syscall_emul.hh:816: warn: Unsupported ioctl call (return ENOTTY): ioctl(1, 0x802c542a, ...) @ (0x442a9c=>0x442aa0).(0=>1)
elements=1048576 ops=100000 write_ratio=75 seed=1 memory_order=relaxed
elapsed=0.017157 s
read_ops=24945 (1.454 Mop/s)
write_ops=75055 (4.375 Mop/s)
total_ops=100000 (5.829 Mop/s)
All simulation events were successful.
Done with the simulation after 66.63 seconds of wall clock time!
Running with ISA=ARM, SQ size=64, LQ size=64, write-ratio=75, TSO=true
Global frequency set at 1000000000000 ticks per second
warn: rounding error > tolerance
    29.103830 rounded to 29
warn: rounding error > tolerance
    29.103830 rounded to 29
warn: No dot file generated. Please install pydot to generate the dot file and pdf.
warn: rounding error > tolerance
    29.103830 rounded to 29
src/base/statistics.hh:279: warn: One of the stats is a legacy stat. Legacy stat is a stat that does not belong to any statistics::Group. Legacy stat is deprecated.
src/base/stats/storage.hh:278: warn: Bucket size (4) does not divide range [1:32] into equal-sized buckets. Rounding up.
src/base/stats/storage.hh:278: warn: Bucket size (4) does not divide range [1:8] into equal-sized buckets. Rounding up.
src/base/remote_gdb.cc:418: warn: Sockets disabled, not accepting gdb connections
gem5 Simulator System.  https://www.gem5.org
gem5 is copyrighted software; use the --copyright option for details.

gem5 version 25.1.0.1
gem5 compiled Apr 23 2026 03:50:53
gem5 started Apr 23 2026 13:57:45
gem5 executing on shafin-HP-Laptop-14s-fq1786, pid 245688
command line: ./gem5/build/ALL/gem5.opt rw_ratio_bench.py --binary-path rw_ratio_bench-ARM --isa ARM --sq-size 64 --lq-size 64 --write-ratio 75 --needs-tso

info: Standard input is not a terminal, disabling listeners.
Parameters:
  binary-path: rw_ratio_bench-ARM
  write-ratio: 75
  isa: ARM
  rob-size: 512
  lq-size: 64
  sq-size: 64
  needs-tso: True
Running the simulation
Using O3 cpu
src/arch/arm/insts/pseudo.cc:174: warn: 	instruction 'bti' unimplemented
src/sim/syscall_emul.cc:86: warn: ignoring syscall set_robust_list(...)
src/sim/syscall_emul.cc:97: warn: ignoring syscall rseq(...)
      (further warnings will be suppressed)
src/sim/mem_state.cc:443: info: Increasing stack size by one page.
src/sim/syscall_emul.hh:1127: warn: readlink() called on '/proc/self/exe' may yield unexpected results in various settings.
      Returning '/home/shafin/repos/CXL-consistency-tax/rw_ratio_bench-ARM'
src/sim/syscall_emul.cc:86: warn: ignoring syscall mprotect(...)
src/arch/arm/insts/pseudo.cc:174: warn: 	instruction 'unallocated_hint' unimplemented
src/arch/arm/insts/pseudo.cc:174: warn: 	instruction 'bti' unimplemented
src/sim/syscall_emul.hh:816: warn: Unsupported ioctl call (return ENOTTY): ioctl(1, 0x802c542a, ...) @ (0x442a9c=>0x442aa0).(0=>1)
elements=1048576 ops=100000 write_ratio=75 seed=1 memory_order=relaxed
elapsed=0.017157 s
read_ops=24945 (1.454 Mop/s)
write_ops=75055 (4.375 Mop/s)
total_ops=100000 (5.829 Mop/s)
All simulation events were successful.
Done with the simulation after 66.78 seconds of wall clock time!
Running with ISA=ARM, SQ size=128, LQ size=128, write-ratio=75, TSO=true
Global frequency set at 1000000000000 ticks per second
warn: rounding error > tolerance
    29.103830 rounded to 29
warn: rounding error > tolerance
    29.103830 rounded to 29
warn: No dot file generated. Please install pydot to generate the dot file and pdf.
warn: rounding error > tolerance
    29.103830 rounded to 29
src/base/statistics.hh:279: warn: One of the stats is a legacy stat. Legacy stat is a stat that does not belong to any statistics::Group. Legacy stat is deprecated.
src/base/stats/storage.hh:278: warn: Bucket size (4) does not divide range [1:32] into equal-sized buckets. Rounding up.
src/base/stats/storage.hh:278: warn: Bucket size (4) does not divide range [1:8] into equal-sized buckets. Rounding up.
src/base/remote_gdb.cc:418: warn: Sockets disabled, not accepting gdb connections
gem5 Simulator System.  https://www.gem5.org
gem5 is copyrighted software; use the --copyright option for details.

gem5 version 25.1.0.1
gem5 compiled Apr 23 2026 03:50:53
gem5 started Apr 23 2026 13:58:53
gem5 executing on shafin-HP-Laptop-14s-fq1786, pid 246068
command line: ./gem5/build/ALL/gem5.opt rw_ratio_bench.py --binary-path rw_ratio_bench-ARM --isa ARM --sq-size 128 --lq-size 128 --write-ratio 75 --needs-tso

info: Standard input is not a terminal, disabling listeners.
Parameters:
  binary-path: rw_ratio_bench-ARM
  write-ratio: 75
  isa: ARM
  rob-size: 512
  lq-size: 128
  sq-size: 128
  needs-tso: True
Running the simulation
Using O3 cpu
src/arch/arm/insts/pseudo.cc:174: warn: 	instruction 'bti' unimplemented
src/sim/syscall_emul.cc:86: warn: ignoring syscall set_robust_list(...)
src/sim/syscall_emul.cc:97: warn: ignoring syscall rseq(...)
      (further warnings will be suppressed)
src/sim/mem_state.cc:443: info: Increasing stack size by one page.
src/sim/syscall_emul.hh:1127: warn: readlink() called on '/proc/self/exe' may yield unexpected results in various settings.
      Returning '/home/shafin/repos/CXL-consistency-tax/rw_ratio_bench-ARM'
src/sim/syscall_emul.cc:86: warn: ignoring syscall mprotect(...)
src/arch/arm/insts/pseudo.cc:174: warn: 	instruction 'unallocated_hint' unimplemented
src/arch/arm/insts/pseudo.cc:174: warn: 	instruction 'bti' unimplemented
src/sim/syscall_emul.hh:816: warn: Unsupported ioctl call (return ENOTTY): ioctl(1, 0x802c542a, ...) @ (0x442a9c=>0x442aa0).(0=>1)
elements=1048576 ops=100000 write_ratio=75 seed=1 memory_order=relaxed
elapsed=0.017157 s
read_ops=24945 (1.454 Mop/s)
write_ops=75055 (4.375 Mop/s)
total_ops=100000 (5.829 Mop/s)
All simulation events were successful.
Done with the simulation after 70.03 seconds of wall clock time!
Running with ISA=ARM, SQ size=8, LQ size=8, write-ratio=75, TSO=false
Global frequency set at 1000000000000 ticks per second
warn: rounding error > tolerance
    29.103830 rounded to 29
warn: rounding error > tolerance
    29.103830 rounded to 29
warn: No dot file generated. Please install pydot to generate the dot file and pdf.
warn: rounding error > tolerance
    29.103830 rounded to 29
src/base/statistics.hh:279: warn: One of the stats is a legacy stat. Legacy stat is a stat that does not belong to any statistics::Group. Legacy stat is deprecated.
src/base/stats/storage.hh:278: warn: Bucket size (4) does not divide range [1:32] into equal-sized buckets. Rounding up.
src/base/stats/storage.hh:278: warn: Bucket size (4) does not divide range [1:8] into equal-sized buckets. Rounding up.
src/base/remote_gdb.cc:418: warn: Sockets disabled, not accepting gdb connections
gem5 Simulator System.  https://www.gem5.org
gem5 is copyrighted software; use the --copyright option for details.

gem5 version 25.1.0.1
gem5 compiled Apr 23 2026 03:50:53
gem5 started Apr 23 2026 14:00:04
gem5 executing on shafin-HP-Laptop-14s-fq1786, pid 246637
command line: ./gem5/build/ALL/gem5.opt rw_ratio_bench.py --binary-path rw_ratio_bench-ARM --isa ARM --sq-size 8 --lq-size 8 --write-ratio 75

info: Standard input is not a terminal, disabling listeners.
Parameters:
  binary-path: rw_ratio_bench-ARM
  write-ratio: 75
  isa: ARM
  rob-size: 512
  lq-size: 8
  sq-size: 8
  needs-tso: False
Running the simulation
Using O3 cpu
src/arch/arm/insts/pseudo.cc:174: warn: 	instruction 'bti' unimplemented
src/sim/syscall_emul.cc:86: warn: ignoring syscall set_robust_list(...)
src/sim/syscall_emul.cc:97: warn: ignoring syscall rseq(...)
      (further warnings will be suppressed)
src/sim/mem_state.cc:443: info: Increasing stack size by one page.
src/sim/syscall_emul.hh:1127: warn: readlink() called on '/proc/self/exe' may yield unexpected results in various settings.
      Returning '/home/shafin/repos/CXL-consistency-tax/rw_ratio_bench-ARM'
src/sim/syscall_emul.cc:86: warn: ignoring syscall mprotect(...)
src/arch/arm/insts/pseudo.cc:174: warn: 	instruction 'unallocated_hint' unimplemented
src/arch/arm/insts/pseudo.cc:174: warn: 	instruction 'bti' unimplemented
src/sim/syscall_emul.hh:816: warn: Unsupported ioctl call (return ENOTTY): ioctl(1, 0x802c542a, ...) @ (0x442a9c=>0x442aa0).(0=>1)
elements=1048576 ops=100000 write_ratio=75 seed=1 memory_order=relaxed
elapsed=0.017155 s
read_ops=24945 (1.454 Mop/s)
write_ops=75055 (4.375 Mop/s)
total_ops=100000 (5.829 Mop/s)
All simulation events were successful.
Done with the simulation after 67.66 seconds of wall clock time!
Running with ISA=ARM, SQ size=16, LQ size=16, write-ratio=75, TSO=false
Global frequency set at 1000000000000 ticks per second
warn: rounding error > tolerance
    29.103830 rounded to 29
warn: rounding error > tolerance
    29.103830 rounded to 29
warn: No dot file generated. Please install pydot to generate the dot file and pdf.
warn: rounding error > tolerance
    29.103830 rounded to 29
src/base/statistics.hh:279: warn: One of the stats is a legacy stat. Legacy stat is a stat that does not belong to any statistics::Group. Legacy stat is deprecated.
src/base/stats/storage.hh:278: warn: Bucket size (4) does not divide range [1:32] into equal-sized buckets. Rounding up.
src/base/stats/storage.hh:278: warn: Bucket size (4) does not divide range [1:8] into equal-sized buckets. Rounding up.
src/base/remote_gdb.cc:418: warn: Sockets disabled, not accepting gdb connections
gem5 Simulator System.  https://www.gem5.org
gem5 is copyrighted software; use the --copyright option for details.

gem5 version 25.1.0.1
gem5 compiled Apr 23 2026 03:50:53
gem5 started Apr 23 2026 14:01:12
gem5 executing on shafin-HP-Laptop-14s-fq1786, pid 247146
command line: ./gem5/build/ALL/gem5.opt rw_ratio_bench.py --binary-path rw_ratio_bench-ARM --isa ARM --sq-size 16 --lq-size 16 --write-ratio 75

info: Standard input is not a terminal, disabling listeners.
Parameters:
  binary-path: rw_ratio_bench-ARM
  write-ratio: 75
  isa: ARM
  rob-size: 512
  lq-size: 16
  sq-size: 16
  needs-tso: False
Running the simulation
Using O3 cpu
src/arch/arm/insts/pseudo.cc:174: warn: 	instruction 'bti' unimplemented
src/sim/syscall_emul.cc:86: warn: ignoring syscall set_robust_list(...)
src/sim/syscall_emul.cc:97: warn: ignoring syscall rseq(...)
      (further warnings will be suppressed)
src/sim/mem_state.cc:443: info: Increasing stack size by one page.
src/sim/syscall_emul.hh:1127: warn: readlink() called on '/proc/self/exe' may yield unexpected results in various settings.
      Returning '/home/shafin/repos/CXL-consistency-tax/rw_ratio_bench-ARM'
src/sim/syscall_emul.cc:86: warn: ignoring syscall mprotect(...)
src/arch/arm/insts/pseudo.cc:174: warn: 	instruction 'unallocated_hint' unimplemented
src/arch/arm/insts/pseudo.cc:174: warn: 	instruction 'bti' unimplemented
src/sim/syscall_emul.hh:816: warn: Unsupported ioctl call (return ENOTTY): ioctl(1, 0x802c542a, ...) @ (0x442a9c=>0x442aa0).(0=>1)
elements=1048576 ops=100000 write_ratio=75 seed=1 memory_order=relaxed
elapsed=0.017157 s
read_ops=24945 (1.454 Mop/s)
write_ops=75055 (4.375 Mop/s)
total_ops=100000 (5.829 Mop/s)
All simulation events were successful.
Done with the simulation after 72.06 seconds of wall clock time!
Running with ISA=ARM, SQ size=32, LQ size=32, write-ratio=75, TSO=false
Global frequency set at 1000000000000 ticks per second
warn: rounding error > tolerance
    29.103830 rounded to 29
warn: rounding error > tolerance
    29.103830 rounded to 29
warn: No dot file generated. Please install pydot to generate the dot file and pdf.
warn: rounding error > tolerance
    29.103830 rounded to 29
src/base/statistics.hh:279: warn: One of the stats is a legacy stat. Legacy stat is a stat that does not belong to any statistics::Group. Legacy stat is deprecated.
src/base/stats/storage.hh:278: warn: Bucket size (4) does not divide range [1:32] into equal-sized buckets. Rounding up.
src/base/stats/storage.hh:278: warn: Bucket size (4) does not divide range [1:8] into equal-sized buckets. Rounding up.
src/base/remote_gdb.cc:418: warn: Sockets disabled, not accepting gdb connections
gem5 Simulator System.  https://www.gem5.org
gem5 is copyrighted software; use the --copyright option for details.

gem5 version 25.1.0.1
gem5 compiled Apr 23 2026 03:50:53
gem5 started Apr 23 2026 14:02:25
gem5 executing on shafin-HP-Laptop-14s-fq1786, pid 247634
command line: ./gem5/build/ALL/gem5.opt rw_ratio_bench.py --binary-path rw_ratio_bench-ARM --isa ARM --sq-size 32 --lq-size 32 --write-ratio 75

info: Standard input is not a terminal, disabling listeners.
Parameters:
  binary-path: rw_ratio_bench-ARM
  write-ratio: 75
  isa: ARM
  rob-size: 512
  lq-size: 32
  sq-size: 32
  needs-tso: False
Running the simulation
Using O3 cpu
src/arch/arm/insts/pseudo.cc:174: warn: 	instruction 'bti' unimplemented
src/sim/syscall_emul.cc:86: warn: ignoring syscall set_robust_list(...)
src/sim/syscall_emul.cc:97: warn: ignoring syscall rseq(...)
      (further warnings will be suppressed)
src/sim/mem_state.cc:443: info: Increasing stack size by one page.
src/sim/syscall_emul.hh:1127: warn: readlink() called on '/proc/self/exe' may yield unexpected results in various settings.
      Returning '/home/shafin/repos/CXL-consistency-tax/rw_ratio_bench-ARM'
src/sim/syscall_emul.cc:86: warn: ignoring syscall mprotect(...)
src/arch/arm/insts/pseudo.cc:174: warn: 	instruction 'unallocated_hint' unimplemented
src/arch/arm/insts/pseudo.cc:174: warn: 	instruction 'bti' unimplemented
src/sim/syscall_emul.hh:816: warn: Unsupported ioctl call (return ENOTTY): ioctl(1, 0x802c542a, ...) @ (0x442a9c=>0x442aa0).(0=>1)
elements=1048576 ops=100000 write_ratio=75 seed=1 memory_order=relaxed
elapsed=0.017157 s
read_ops=24945 (1.454 Mop/s)
write_ops=75055 (4.375 Mop/s)
total_ops=100000 (5.829 Mop/s)
All simulation events were successful.
Done with the simulation after 64.71 seconds of wall clock time!
Running with ISA=ARM, SQ size=64, LQ size=64, write-ratio=75, TSO=false
Global frequency set at 1000000000000 ticks per second
warn: rounding error > tolerance
    29.103830 rounded to 29
warn: rounding error > tolerance
    29.103830 rounded to 29
warn: No dot file generated. Please install pydot to generate the dot file and pdf.
warn: rounding error > tolerance
    29.103830 rounded to 29
src/base/statistics.hh:279: warn: One of the stats is a legacy stat. Legacy stat is a stat that does not belong to any statistics::Group. Legacy stat is deprecated.
src/base/stats/storage.hh:278: warn: Bucket size (4) does not divide range [1:32] into equal-sized buckets. Rounding up.
src/base/stats/storage.hh:278: warn: Bucket size (4) does not divide range [1:8] into equal-sized buckets. Rounding up.
src/base/remote_gdb.cc:418: warn: Sockets disabled, not accepting gdb connections
gem5 Simulator System.  https://www.gem5.org
gem5 is copyrighted software; use the --copyright option for details.

gem5 version 25.1.0.1
gem5 compiled Apr 23 2026 03:50:53
gem5 started Apr 23 2026 14:03:31
gem5 executing on shafin-HP-Laptop-14s-fq1786, pid 248086
command line: ./gem5/build/ALL/gem5.opt rw_ratio_bench.py --binary-path rw_ratio_bench-ARM --isa ARM --sq-size 64 --lq-size 64 --write-ratio 75

info: Standard input is not a terminal, disabling listeners.
Parameters:
  binary-path: rw_ratio_bench-ARM
  write-ratio: 75
  isa: ARM
  rob-size: 512
  lq-size: 64
  sq-size: 64
  needs-tso: False
Running the simulation
Using O3 cpu
src/arch/arm/insts/pseudo.cc:174: warn: 	instruction 'bti' unimplemented
src/sim/syscall_emul.cc:86: warn: ignoring syscall set_robust_list(...)
src/sim/syscall_emul.cc:97: warn: ignoring syscall rseq(...)
      (further warnings will be suppressed)
src/sim/mem_state.cc:443: info: Increasing stack size by one page.
src/sim/syscall_emul.hh:1127: warn: readlink() called on '/proc/self/exe' may yield unexpected results in various settings.
      Returning '/home/shafin/repos/CXL-consistency-tax/rw_ratio_bench-ARM'
src/sim/syscall_emul.cc:86: warn: ignoring syscall mprotect(...)
src/arch/arm/insts/pseudo.cc:174: warn: 	instruction 'unallocated_hint' unimplemented
src/arch/arm/insts/pseudo.cc:174: warn: 	instruction 'bti' unimplemented
src/sim/syscall_emul.hh:816: warn: Unsupported ioctl call (return ENOTTY): ioctl(1, 0x802c542a, ...) @ (0x442a9c=>0x442aa0).(0=>1)
elements=1048576 ops=100000 write_ratio=75 seed=1 memory_order=relaxed
elapsed=0.017157 s
read_ops=24945 (1.454 Mop/s)
write_ops=75055 (4.375 Mop/s)
total_ops=100000 (5.829 Mop/s)
All simulation events were successful.
Done with the simulation after 68.32 seconds of wall clock time!
Running with ISA=ARM, SQ size=128, LQ size=128, write-ratio=75, TSO=false
Global frequency set at 1000000000000 ticks per second
warn: rounding error > tolerance
    29.103830 rounded to 29
warn: rounding error > tolerance
    29.103830 rounded to 29
warn: No dot file generated. Please install pydot to generate the dot file and pdf.
warn: rounding error > tolerance
    29.103830 rounded to 29
src/base/statistics.hh:279: warn: One of the stats is a legacy stat. Legacy stat is a stat that does not belong to any statistics::Group. Legacy stat is deprecated.
src/base/stats/storage.hh:278: warn: Bucket size (4) does not divide range [1:32] into equal-sized buckets. Rounding up.
src/base/stats/storage.hh:278: warn: Bucket size (4) does not divide range [1:8] into equal-sized buckets. Rounding up.
src/base/remote_gdb.cc:418: warn: Sockets disabled, not accepting gdb connections
gem5 Simulator System.  https://www.gem5.org
gem5 is copyrighted software; use the --copyright option for details.

gem5 version 25.1.0.1
gem5 compiled Apr 23 2026 03:50:53
gem5 started Apr 23 2026 14:04:40
gem5 executing on shafin-HP-Laptop-14s-fq1786, pid 248551
command line: ./gem5/build/ALL/gem5.opt rw_ratio_bench.py --binary-path rw_ratio_bench-ARM --isa ARM --sq-size 128 --lq-size 128 --write-ratio 75

info: Standard input is not a terminal, disabling listeners.
Parameters:
  binary-path: rw_ratio_bench-ARM
  write-ratio: 75
  isa: ARM
  rob-size: 512
  lq-size: 128
  sq-size: 128
  needs-tso: False
Running the simulation
Using O3 cpu
src/arch/arm/insts/pseudo.cc:174: warn: 	instruction 'bti' unimplemented
src/sim/syscall_emul.cc:86: warn: ignoring syscall set_robust_list(...)
src/sim/syscall_emul.cc:97: warn: ignoring syscall rseq(...)
      (further warnings will be suppressed)
src/sim/mem_state.cc:443: info: Increasing stack size by one page.
src/sim/syscall_emul.hh:1127: warn: readlink() called on '/proc/self/exe' may yield unexpected results in various settings.
      Returning '/home/shafin/repos/CXL-consistency-tax/rw_ratio_bench-ARM'
src/sim/syscall_emul.cc:86: warn: ignoring syscall mprotect(...)
src/arch/arm/insts/pseudo.cc:174: warn: 	instruction 'unallocated_hint' unimplemented
src/arch/arm/insts/pseudo.cc:174: warn: 	instruction 'bti' unimplemented
src/sim/syscall_emul.hh:816: warn: Unsupported ioctl call (return ENOTTY): ioctl(1, 0x802c542a, ...) @ (0x442a9c=>0x442aa0).(0=>1)
elements=1048576 ops=100000 write_ratio=75 seed=1 memory_order=relaxed
elapsed=0.017157 s
read_ops=24945 (1.454 Mop/s)
write_ops=75055 (4.375 Mop/s)
total_ops=100000 (5.829 Mop/s)
All simulation events were successful.
Done with the simulation after 68.26 seconds of wall clock time!
