[30] Running: L=80ns BW=25GiB/s S=1
Global frequency set at 1000000000000 ticks per second
warn: rounding error > tolerance
    37.252903 rounded to 37
warn: rounding error > tolerance
    37.252903 rounded to 37
warn: No dot file generated. Please install pydot to generate the dot file and pdf.
warn: rounding error > tolerance
    37.252903 rounded to 37
src/base/statistics.hh:279: warn: One of the stats is a legacy stat. Legacy stat is a stat that does not belong to any statistics::Group. Legacy stat is deprecated.
src/base/stats/storage.hh:278: warn: Bucket size (4) does not divide range [1:32] into equal-sized buckets. Rounding up.
src/base/stats/storage.hh:278: warn: Bucket size (4) does not divide range [1:8] into equal-sized buckets. Rounding up.
src/base/remote_gdb.cc:418: warn: Sockets disabled, not accepting gdb connections
gem5 Simulator System.  https://www.gem5.org
gem5 is copyrighted software; use the --copyright option for details.

gem5 version 25.1.0.0
gem5 compiled Apr  8 2026 20:09:11
gem5 started Apr  8 2026 21:16:32
gem5 executing on spartacus-7, pid 2833646
command line: /home/hasanat/abrar/cxl_tax/gem5/build/X86/gem5.opt -d /home/hasanat/abrar/cxl_tax/results/stream_sweep/L_80ns__BW_25GiB_s__S_1 /home/hasanat/abrar/cxl_tax/configs/cxl_tax_se.py --bin /home/hasanat/abrar/cxl_tax/benches/stream_read --args '50000 1' --cpu-type o3 --mem-lat 80ns --mem-bw 25GiB/s

info: Standard input is not a terminal, disabling listeners.
src/sim/syscall_emul.cc:86: warn: ignoring syscall set_robust_list(...)
src/sim/syscall_emul.cc:86: warn: ignoring syscall rseq(...)
src/sim/mem_state.cc:443: info: Increasing stack size by one page.
src/sim/syscall_emul.hh:1127: warn: readlink() called on '/proc/self/exe' may yield unexpected results in various settings.
      Returning '/home/hasanat/abrar/cxl_tax/benches/stream_read'
src/sim/syscall_emul.cc:86: warn: ignoring syscall mprotect(...)
done iters=50000 streams=1 sink=7595718147998017136
[30] Done: L=80ns BW=25GiB/s S=1
[31] Running: L=80ns BW=25GiB/s S=4
Global frequency set at 1000000000000 ticks per second
warn: rounding error > tolerance
    37.252903 rounded to 37
warn: rounding error > tolerance
    37.252903 rounded to 37
warn: No dot file generated. Please install pydot to generate the dot file and pdf.
warn: rounding error > tolerance
    37.252903 rounded to 37
src/base/statistics.hh:279: warn: One of the stats is a legacy stat. Legacy stat is a stat that does not belong to any statistics::Group. Legacy stat is deprecated.
src/base/stats/storage.hh:278: warn: Bucket size (4) does not divide range [1:32] into equal-sized buckets. Rounding up.
src/base/stats/storage.hh:278: warn: Bucket size (4) does not divide range [1:8] into equal-sized buckets. Rounding up.
src/base/remote_gdb.cc:418: warn: Sockets disabled, not accepting gdb connections
gem5 Simulator System.  https://www.gem5.org
gem5 is copyrighted software; use the --copyright option for details.

gem5 version 25.1.0.0
gem5 compiled Apr  8 2026 20:09:11
gem5 started Apr  8 2026 21:16:35
gem5 executing on spartacus-7, pid 2833655
command line: /home/hasanat/abrar/cxl_tax/gem5/build/X86/gem5.opt -d /home/hasanat/abrar/cxl_tax/results/stream_sweep/L_80ns__BW_25GiB_s__S_4 /home/hasanat/abrar/cxl_tax/configs/cxl_tax_se.py --bin /home/hasanat/abrar/cxl_tax/benches/stream_read --args '50000 4' --cpu-type o3 --mem-lat 80ns --mem-bw 25GiB/s

info: Standard input is not a terminal, disabling listeners.
src/sim/syscall_emul.cc:86: warn: ignoring syscall set_robust_list(...)
src/sim/syscall_emul.cc:86: warn: ignoring syscall rseq(...)
src/sim/mem_state.cc:443: info: Increasing stack size by one page.
src/sim/syscall_emul.hh:1127: warn: readlink() called on '/proc/self/exe' may yield unexpected results in various settings.
      Returning '/home/hasanat/abrar/cxl_tax/benches/stream_read'
src/sim/syscall_emul.cc:86: warn: ignoring syscall mprotect(...)
done iters=50000 streams=4 sink=11936128518282516928
[31] Done: L=80ns BW=25GiB/s S=4
[32] Running: L=80ns BW=25GiB/s S=8
Global frequency set at 1000000000000 ticks per second
warn: rounding error > tolerance
    37.252903 rounded to 37
warn: rounding error > tolerance
    37.252903 rounded to 37
warn: No dot file generated. Please install pydot to generate the dot file and pdf.
warn: rounding error > tolerance
    37.252903 rounded to 37
src/base/statistics.hh:279: warn: One of the stats is a legacy stat. Legacy stat is a stat that does not belong to any statistics::Group. Legacy stat is deprecated.
src/base/stats/storage.hh:278: warn: Bucket size (4) does not divide range [1:32] into equal-sized buckets. Rounding up.
src/base/stats/storage.hh:278: warn: Bucket size (4) does not divide range [1:8] into equal-sized buckets. Rounding up.
src/base/remote_gdb.cc:418: warn: Sockets disabled, not accepting gdb connections
gem5 Simulator System.  https://www.gem5.org
gem5 is copyrighted software; use the --copyright option for details.

gem5 version 25.1.0.0
gem5 compiled Apr  8 2026 20:09:11
gem5 started Apr  8 2026 21:16:43
gem5 executing on spartacus-7, pid 2833756
command line: /home/hasanat/abrar/cxl_tax/gem5/build/X86/gem5.opt -d /home/hasanat/abrar/cxl_tax/results/stream_sweep/L_80ns__BW_25GiB_s__S_8 /home/hasanat/abrar/cxl_tax/configs/cxl_tax_se.py --bin /home/hasanat/abrar/cxl_tax/benches/stream_read --args '50000 8' --cpu-type o3 --mem-lat 80ns --mem-bw 25GiB/s

info: Standard input is not a terminal, disabling listeners.
src/sim/syscall_emul.cc:86: warn: ignoring syscall set_robust_list(...)
src/sim/syscall_emul.cc:86: warn: ignoring syscall rseq(...)
src/sim/mem_state.cc:443: info: Increasing stack size by one page.
src/sim/syscall_emul.hh:1127: warn: readlink() called on '/proc/self/exe' may yield unexpected results in various settings.
      Returning '/home/hasanat/abrar/cxl_tax/benches/stream_read'
src/sim/syscall_emul.cc:86: warn: ignoring syscall mprotect(...)
done iters=50000 streams=8 sink=5425512962855482240
[32] Done: L=80ns BW=25GiB/s S=8
[33] Running: L=80ns BW=25GiB/s S=16
Global frequency set at 1000000000000 ticks per second
warn: rounding error > tolerance
    37.252903 rounded to 37
warn: rounding error > tolerance
    37.252903 rounded to 37
warn: No dot file generated. Please install pydot to generate the dot file and pdf.
warn: rounding error > tolerance
    37.252903 rounded to 37
src/base/statistics.hh:279: warn: One of the stats is a legacy stat. Legacy stat is a stat that does not belong to any statistics::Group. Legacy stat is deprecated.
src/base/stats/storage.hh:278: warn: Bucket size (4) does not divide range [1:32] into equal-sized buckets. Rounding up.
src/base/stats/storage.hh:278: warn: Bucket size (4) does not divide range [1:8] into equal-sized buckets. Rounding up.
src/base/remote_gdb.cc:418: warn: Sockets disabled, not accepting gdb connections
gem5 Simulator System.  https://www.gem5.org
gem5 is copyrighted software; use the --copyright option for details.

gem5 version 25.1.0.0
gem5 compiled Apr  8 2026 20:09:11
gem5 started Apr  8 2026 21:16:57
gem5 executing on spartacus-7, pid 2833865
command line: /home/hasanat/abrar/cxl_tax/gem5/build/X86/gem5.opt -d /home/hasanat/abrar/cxl_tax/results/stream_sweep/L_80ns__BW_25GiB_s__S_16 /home/hasanat/abrar/cxl_tax/configs/cxl_tax_se.py --bin /home/hasanat/abrar/cxl_tax/benches/stream_read --args '50000 16' --cpu-type o3 --mem-lat 80ns --mem-bw 25GiB/s

info: Standard input is not a terminal, disabling listeners.
src/sim/syscall_emul.cc:86: warn: ignoring syscall set_robust_list(...)
src/sim/syscall_emul.cc:86: warn: ignoring syscall rseq(...)
src/sim/mem_state.cc:443: info: Increasing stack size by one page.
src/sim/syscall_emul.hh:1127: warn: readlink() called on '/proc/self/exe' may yield unexpected results in various settings.
      Returning '/home/hasanat/abrar/cxl_tax/benches/stream_read'
src/sim/syscall_emul.cc:86: warn: ignoring syscall mprotect(...)
done iters=50000 streams=16 sink=10851025925710964480
[33] Done: L=80ns BW=25GiB/s S=16
[34] Running: L=80ns BW=25GiB/s S=32
Global frequency set at 1000000000000 ticks per second
warn: rounding error > tolerance
    37.252903 rounded to 37
warn: rounding error > tolerance
    37.252903 rounded to 37
warn: No dot file generated. Please install pydot to generate the dot file and pdf.
warn: rounding error > tolerance
    37.252903 rounded to 37
src/base/statistics.hh:279: warn: One of the stats is a legacy stat. Legacy stat is a stat that does not belong to any statistics::Group. Legacy stat is deprecated.
src/base/stats/storage.hh:278: warn: Bucket size (4) does not divide range [1:32] into equal-sized buckets. Rounding up.
src/base/stats/storage.hh:278: warn: Bucket size (4) does not divide range [1:8] into equal-sized buckets. Rounding up.
src/base/remote_gdb.cc:418: warn: Sockets disabled, not accepting gdb connections
gem5 Simulator System.  https://www.gem5.org
gem5 is copyrighted software; use the --copyright option for details.

gem5 version 25.1.0.0
gem5 compiled Apr  8 2026 20:09:11
gem5 started Apr  8 2026 21:17:28
gem5 executing on spartacus-7, pid 2834042
command line: /home/hasanat/abrar/cxl_tax/gem5/build/X86/gem5.opt -d /home/hasanat/abrar/cxl_tax/results/stream_sweep/L_80ns__BW_25GiB_s__S_32 /home/hasanat/abrar/cxl_tax/configs/cxl_tax_se.py --bin /home/hasanat/abrar/cxl_tax/benches/stream_read --args '50000 32' --cpu-type o3 --mem-lat 80ns --mem-bw 25GiB/s

info: Standard input is not a terminal, disabling listeners.
src/sim/syscall_emul.cc:86: warn: ignoring syscall set_robust_list(...)
src/sim/syscall_emul.cc:86: warn: ignoring syscall rseq(...)
src/sim/mem_state.cc:443: info: Increasing stack size by one page.
src/sim/syscall_emul.hh:1127: warn: readlink() called on '/proc/self/exe' may yield unexpected results in various settings.
      Returning '/home/hasanat/abrar/cxl_tax/benches/stream_read'
src/sim/syscall_emul.cc:86: warn: ignoring syscall mprotect(...)
done iters=50000 streams=32 sink=3255307777712377344
[34] Done: L=80ns BW=25GiB/s S=32
[35] Running: L=80ns BW=12.5GiB/s S=1
Global frequency set at 1000000000000 ticks per second
warn: No dot file generated. Please install pydot to generate the dot file and pdf.
src/base/statistics.hh:279: warn: One of the stats is a legacy stat. Legacy stat is a stat that does not belong to any statistics::Group. Legacy stat is deprecated.
src/base/stats/storage.hh:278: warn: Bucket size (4) does not divide range [1:32] into equal-sized buckets. Rounding up.
src/base/stats/storage.hh:278: warn: Bucket size (4) does not divide range [1:8] into equal-sized buckets. Rounding up.
src/base/remote_gdb.cc:418: warn: Sockets disabled, not accepting gdb connections
gem5 Simulator System.  https://www.gem5.org
gem5 is copyrighted software; use the --copyright option for details.

gem5 version 25.1.0.0
gem5 compiled Apr  8 2026 20:09:11
gem5 started Apr  8 2026 21:18:24
gem5 executing on spartacus-7, pid 2836317
command line: /home/hasanat/abrar/cxl_tax/gem5/build/X86/gem5.opt -d /home/hasanat/abrar/cxl_tax/results/stream_sweep/L_80ns__BW_12.5GiB_s__S_1 /home/hasanat/abrar/cxl_tax/configs/cxl_tax_se.py --bin /home/hasanat/abrar/cxl_tax/benches/stream_read --args '50000 1' --cpu-type o3 --mem-lat 80ns --mem-bw 12.5GiB/s

info: Standard input is not a terminal, disabling listeners.
src/sim/syscall_emul.cc:86: warn: ignoring syscall set_robust_list(...)
src/sim/syscall_emul.cc:86: warn: ignoring syscall rseq(...)
src/sim/mem_state.cc:443: info: Increasing stack size by one page.
src/sim/syscall_emul.hh:1127: warn: readlink() called on '/proc/self/exe' may yield unexpected results in various settings.
      Returning '/home/hasanat/abrar/cxl_tax/benches/stream_read'
src/sim/syscall_emul.cc:86: warn: ignoring syscall mprotect(...)
done iters=50000 streams=1 sink=7595718147998017136
[35] Done: L=80ns BW=12.5GiB/s S=1
[36] Running: L=80ns BW=12.5GiB/s S=4
Global frequency set at 1000000000000 ticks per second
warn: No dot file generated. Please install pydot to generate the dot file and pdf.
src/base/statistics.hh:279: warn: One of the stats is a legacy stat. Legacy stat is a stat that does not belong to any statistics::Group. Legacy stat is deprecated.
src/base/stats/storage.hh:278: warn: Bucket size (4) does not divide range [1:32] into equal-sized buckets. Rounding up.
src/base/stats/storage.hh:278: warn: Bucket size (4) does not divide range [1:8] into equal-sized buckets. Rounding up.
src/base/remote_gdb.cc:418: warn: Sockets disabled, not accepting gdb connections
gem5 Simulator System.  https://www.gem5.org
gem5 is copyrighted software; use the --copyright option for details.

gem5 version 25.1.0.0
gem5 compiled Apr  8 2026 20:09:11
gem5 started Apr  8 2026 21:18:27
gem5 executing on spartacus-7, pid 2836423
command line: /home/hasanat/abrar/cxl_tax/gem5/build/X86/gem5.opt -d /home/hasanat/abrar/cxl_tax/results/stream_sweep/L_80ns__BW_12.5GiB_s__S_4 /home/hasanat/abrar/cxl_tax/configs/cxl_tax_se.py --bin /home/hasanat/abrar/cxl_tax/benches/stream_read --args '50000 4' --cpu-type o3 --mem-lat 80ns --mem-bw 12.5GiB/s

info: Standard input is not a terminal, disabling listeners.
src/sim/syscall_emul.cc:86: warn: ignoring syscall set_robust_list(...)
src/sim/syscall_emul.cc:86: warn: ignoring syscall rseq(...)
src/sim/mem_state.cc:443: info: Increasing stack size by one page.
src/sim/syscall_emul.hh:1127: warn: readlink() called on '/proc/self/exe' may yield unexpected results in various settings.
      Returning '/home/hasanat/abrar/cxl_tax/benches/stream_read'
src/sim/syscall_emul.cc:86: warn: ignoring syscall mprotect(...)
done iters=50000 streams=4 sink=11936128518282516928
[36] Done: L=80ns BW=12.5GiB/s S=4
[37] Running: L=80ns BW=12.5GiB/s S=8
Global frequency set at 1000000000000 ticks per second
warn: No dot file generated. Please install pydot to generate the dot file and pdf.
src/base/statistics.hh:279: warn: One of the stats is a legacy stat. Legacy stat is a stat that does not belong to any statistics::Group. Legacy stat is deprecated.
src/base/stats/storage.hh:278: warn: Bucket size (4) does not divide range [1:32] into equal-sized buckets. Rounding up.
src/base/stats/storage.hh:278: warn: Bucket size (4) does not divide range [1:8] into equal-sized buckets. Rounding up.
src/base/remote_gdb.cc:418: warn: Sockets disabled, not accepting gdb connections
gem5 Simulator System.  https://www.gem5.org
gem5 is copyrighted software; use the --copyright option for details.

gem5 version 25.1.0.0
gem5 compiled Apr  8 2026 20:09:11
gem5 started Apr  8 2026 21:18:36
gem5 executing on spartacus-7, pid 2836679
command line: /home/hasanat/abrar/cxl_tax/gem5/build/X86/gem5.opt -d /home/hasanat/abrar/cxl_tax/results/stream_sweep/L_80ns__BW_12.5GiB_s__S_8 /home/hasanat/abrar/cxl_tax/configs/cxl_tax_se.py --bin /home/hasanat/abrar/cxl_tax/benches/stream_read --args '50000 8' --cpu-type o3 --mem-lat 80ns --mem-bw 12.5GiB/s

info: Standard input is not a terminal, disabling listeners.
src/sim/syscall_emul.cc:86: warn: ignoring syscall set_robust_list(...)
src/sim/syscall_emul.cc:86: warn: ignoring syscall rseq(...)
src/sim/mem_state.cc:443: info: Increasing stack size by one page.
src/sim/syscall_emul.hh:1127: warn: readlink() called on '/proc/self/exe' may yield unexpected results in various settings.
      Returning '/home/hasanat/abrar/cxl_tax/benches/stream_read'
src/sim/syscall_emul.cc:86: warn: ignoring syscall mprotect(...)
done iters=50000 streams=8 sink=5425512962855482240
[37] Done: L=80ns BW=12.5GiB/s S=8
[38] Running: L=80ns BW=12.5GiB/s S=16
Global frequency set at 1000000000000 ticks per second
warn: No dot file generated. Please install pydot to generate the dot file and pdf.
src/base/statistics.hh:279: warn: One of the stats is a legacy stat. Legacy stat is a stat that does not belong to any statistics::Group. Legacy stat is deprecated.
src/base/stats/storage.hh:278: warn: Bucket size (4) does not divide range [1:32] into equal-sized buckets. Rounding up.
src/base/stats/storage.hh:278: warn: Bucket size (4) does not divide range [1:8] into equal-sized buckets. Rounding up.
src/base/remote_gdb.cc:418: warn: Sockets disabled, not accepting gdb connections
gem5 Simulator System.  https://www.gem5.org
gem5 is copyrighted software; use the --copyright option for details.

gem5 version 25.1.0.0
gem5 compiled Apr  8 2026 20:09:11
gem5 started Apr  8 2026 21:18:51
gem5 executing on spartacus-7, pid 2836880
command line: /home/hasanat/abrar/cxl_tax/gem5/build/X86/gem5.opt -d /home/hasanat/abrar/cxl_tax/results/stream_sweep/L_80ns__BW_12.5GiB_s__S_16 /home/hasanat/abrar/cxl_tax/configs/cxl_tax_se.py --bin /home/hasanat/abrar/cxl_tax/benches/stream_read --args '50000 16' --cpu-type o3 --mem-lat 80ns --mem-bw 12.5GiB/s

info: Standard input is not a terminal, disabling listeners.
src/sim/syscall_emul.cc:86: warn: ignoring syscall set_robust_list(...)
src/sim/syscall_emul.cc:86: warn: ignoring syscall rseq(...)
src/sim/mem_state.cc:443: info: Increasing stack size by one page.
src/sim/syscall_emul.hh:1127: warn: readlink() called on '/proc/self/exe' may yield unexpected results in various settings.
      Returning '/home/hasanat/abrar/cxl_tax/benches/stream_read'
src/sim/syscall_emul.cc:86: warn: ignoring syscall mprotect(...)
done iters=50000 streams=16 sink=10851025925710964480
[38] Done: L=80ns BW=12.5GiB/s S=16
[39] Running: L=80ns BW=12.5GiB/s S=32
Global frequency set at 1000000000000 ticks per second
warn: No dot file generated. Please install pydot to generate the dot file and pdf.
src/base/statistics.hh:279: warn: One of the stats is a legacy stat. Legacy stat is a stat that does not belong to any statistics::Group. Legacy stat is deprecated.
src/base/stats/storage.hh:278: warn: Bucket size (4) does not divide range [1:32] into equal-sized buckets. Rounding up.
src/base/stats/storage.hh:278: warn: Bucket size (4) does not divide range [1:8] into equal-sized buckets. Rounding up.
src/base/remote_gdb.cc:418: warn: Sockets disabled, not accepting gdb connections
gem5 Simulator System.  https://www.gem5.org
gem5 is copyrighted software; use the --copyright option for details.

gem5 version 25.1.0.0
gem5 compiled Apr  8 2026 20:09:11
gem5 started Apr  8 2026 21:19:21
gem5 executing on spartacus-7, pid 2837192
command line: /home/hasanat/abrar/cxl_tax/gem5/build/X86/gem5.opt -d /home/hasanat/abrar/cxl_tax/results/stream_sweep/L_80ns__BW_12.5GiB_s__S_32 /home/hasanat/abrar/cxl_tax/configs/cxl_tax_se.py --bin /home/hasanat/abrar/cxl_tax/benches/stream_read --args '50000 32' --cpu-type o3 --mem-lat 80ns --mem-bw 12.5GiB/s

info: Standard input is not a terminal, disabling listeners.
src/sim/syscall_emul.cc:86: warn: ignoring syscall set_robust_list(...)
src/sim/syscall_emul.cc:86: warn: ignoring syscall rseq(...)
src/sim/mem_state.cc:443: info: Increasing stack size by one page.
src/sim/syscall_emul.hh:1127: warn: readlink() called on '/proc/self/exe' may yield unexpected results in various settings.
      Returning '/home/hasanat/abrar/cxl_tax/benches/stream_read'
src/sim/syscall_emul.cc:86: warn: ignoring syscall mprotect(...)
done iters=50000 streams=32 sink=3255307777712377344
[39] Done: L=80ns BW=12.5GiB/s S=32
Array task 3 complete.
