[0] Running: L=40ns BW=100GiB/s S=1
Global frequency set at 1000000000000 ticks per second
warn: rounding error > tolerance
    9.313226 rounded to 9
warn: rounding error > tolerance
    9.313226 rounded to 9
warn: No dot file generated. Please install pydot to generate the dot file and pdf.
warn: rounding error > tolerance
    9.313226 rounded to 9
src/base/statistics.hh:279: warn: One of the stats is a legacy stat. Legacy stat is a stat that does not belong to any statistics::Group. Legacy stat is deprecated.
src/base/stats/storage.hh:278: warn: Bucket size (4) does not divide range [1:32] into equal-sized buckets. Rounding up.
src/base/stats/storage.hh:278: warn: Bucket size (4) does not divide range [1:8] into equal-sized buckets. Rounding up.
src/base/remote_gdb.cc:418: warn: Sockets disabled, not accepting gdb connections
gem5 Simulator System.  https://www.gem5.org
gem5 is copyrighted software; use the --copyright option for details.

gem5 version 25.1.0.0
gem5 compiled Apr  8 2026 20:09:11
gem5 started Apr  8 2026 21:16:32
gem5 executing on spartacus-7, pid 2833644
command line: /home/hasanat/abrar/cxl_tax/gem5/build/X86/gem5.opt -d /home/hasanat/abrar/cxl_tax/results/stream_sweep/L_40ns__BW_100GiB_s__S_1 /home/hasanat/abrar/cxl_tax/configs/cxl_tax_se.py --bin /home/hasanat/abrar/cxl_tax/benches/stream_read --args '50000 1' --cpu-type o3 --mem-lat 40ns --mem-bw 100GiB/s

info: Standard input is not a terminal, disabling listeners.
src/sim/syscall_emul.cc:86: warn: ignoring syscall set_robust_list(...)
src/sim/syscall_emul.cc:86: warn: ignoring syscall rseq(...)
src/sim/mem_state.cc:443: info: Increasing stack size by one page.
src/sim/syscall_emul.hh:1127: warn: readlink() called on '/proc/self/exe' may yield unexpected results in various settings.
      Returning '/home/hasanat/abrar/cxl_tax/benches/stream_read'
src/sim/syscall_emul.cc:86: warn: ignoring syscall mprotect(...)
done iters=50000 streams=1 sink=7595718147998017136
[0] Done: L=40ns BW=100GiB/s S=1
[1] Running: L=40ns BW=100GiB/s S=4
Global frequency set at 1000000000000 ticks per second
warn: rounding error > tolerance
    9.313226 rounded to 9
warn: rounding error > tolerance
    9.313226 rounded to 9
warn: No dot file generated. Please install pydot to generate the dot file and pdf.
warn: rounding error > tolerance
    9.313226 rounded to 9
src/base/statistics.hh:279: warn: One of the stats is a legacy stat. Legacy stat is a stat that does not belong to any statistics::Group. Legacy stat is deprecated.
src/base/stats/storage.hh:278: warn: Bucket size (4) does not divide range [1:32] into equal-sized buckets. Rounding up.
src/base/stats/storage.hh:278: warn: Bucket size (4) does not divide range [1:8] into equal-sized buckets. Rounding up.
src/base/remote_gdb.cc:418: warn: Sockets disabled, not accepting gdb connections
gem5 Simulator System.  https://www.gem5.org
gem5 is copyrighted software; use the --copyright option for details.

gem5 version 25.1.0.0
gem5 compiled Apr  8 2026 20:09:11
gem5 started Apr  8 2026 21:16:35
gem5 executing on spartacus-7, pid 2833651
command line: /home/hasanat/abrar/cxl_tax/gem5/build/X86/gem5.opt -d /home/hasanat/abrar/cxl_tax/results/stream_sweep/L_40ns__BW_100GiB_s__S_4 /home/hasanat/abrar/cxl_tax/configs/cxl_tax_se.py --bin /home/hasanat/abrar/cxl_tax/benches/stream_read --args '50000 4' --cpu-type o3 --mem-lat 40ns --mem-bw 100GiB/s

info: Standard input is not a terminal, disabling listeners.
src/sim/syscall_emul.cc:86: warn: ignoring syscall set_robust_list(...)
src/sim/syscall_emul.cc:86: warn: ignoring syscall rseq(...)
src/sim/mem_state.cc:443: info: Increasing stack size by one page.
src/sim/syscall_emul.hh:1127: warn: readlink() called on '/proc/self/exe' may yield unexpected results in various settings.
      Returning '/home/hasanat/abrar/cxl_tax/benches/stream_read'
src/sim/syscall_emul.cc:86: warn: ignoring syscall mprotect(...)
done iters=50000 streams=4 sink=11936128518282516928
[1] Done: L=40ns BW=100GiB/s S=4
[2] Running: L=40ns BW=100GiB/s S=8
Global frequency set at 1000000000000 ticks per second
warn: rounding error > tolerance
    9.313226 rounded to 9
warn: rounding error > tolerance
    9.313226 rounded to 9
warn: No dot file generated. Please install pydot to generate the dot file and pdf.
warn: rounding error > tolerance
    9.313226 rounded to 9
src/base/statistics.hh:279: warn: One of the stats is a legacy stat. Legacy stat is a stat that does not belong to any statistics::Group. Legacy stat is deprecated.
src/base/stats/storage.hh:278: warn: Bucket size (4) does not divide range [1:32] into equal-sized buckets. Rounding up.
src/base/stats/storage.hh:278: warn: Bucket size (4) does not divide range [1:8] into equal-sized buckets. Rounding up.
src/base/remote_gdb.cc:418: warn: Sockets disabled, not accepting gdb connections
gem5 Simulator System.  https://www.gem5.org
gem5 is copyrighted software; use the --copyright option for details.

gem5 version 25.1.0.0
gem5 compiled Apr  8 2026 20:09:11
gem5 started Apr  8 2026 21:16:42
gem5 executing on spartacus-7, pid 2833750
command line: /home/hasanat/abrar/cxl_tax/gem5/build/X86/gem5.opt -d /home/hasanat/abrar/cxl_tax/results/stream_sweep/L_40ns__BW_100GiB_s__S_8 /home/hasanat/abrar/cxl_tax/configs/cxl_tax_se.py --bin /home/hasanat/abrar/cxl_tax/benches/stream_read --args '50000 8' --cpu-type o3 --mem-lat 40ns --mem-bw 100GiB/s

info: Standard input is not a terminal, disabling listeners.
src/sim/syscall_emul.cc:86: warn: ignoring syscall set_robust_list(...)
src/sim/syscall_emul.cc:86: warn: ignoring syscall rseq(...)
src/sim/mem_state.cc:443: info: Increasing stack size by one page.
src/sim/syscall_emul.hh:1127: warn: readlink() called on '/proc/self/exe' may yield unexpected results in various settings.
      Returning '/home/hasanat/abrar/cxl_tax/benches/stream_read'
src/sim/syscall_emul.cc:86: warn: ignoring syscall mprotect(...)
done iters=50000 streams=8 sink=5425512962855482240
[2] Done: L=40ns BW=100GiB/s S=8
[3] Running: L=40ns BW=100GiB/s S=16
Global frequency set at 1000000000000 ticks per second
warn: rounding error > tolerance
    9.313226 rounded to 9
warn: rounding error > tolerance
    9.313226 rounded to 9
warn: No dot file generated. Please install pydot to generate the dot file and pdf.
warn: rounding error > tolerance
    9.313226 rounded to 9
src/base/statistics.hh:279: warn: One of the stats is a legacy stat. Legacy stat is a stat that does not belong to any statistics::Group. Legacy stat is deprecated.
src/base/stats/storage.hh:278: warn: Bucket size (4) does not divide range [1:32] into equal-sized buckets. Rounding up.
src/base/stats/storage.hh:278: warn: Bucket size (4) does not divide range [1:8] into equal-sized buckets. Rounding up.
src/base/remote_gdb.cc:418: warn: Sockets disabled, not accepting gdb connections
gem5 Simulator System.  https://www.gem5.org
gem5 is copyrighted software; use the --copyright option for details.

gem5 version 25.1.0.0
gem5 compiled Apr  8 2026 20:09:11
gem5 started Apr  8 2026 21:16:55
gem5 executing on spartacus-7, pid 2833848
command line: /home/hasanat/abrar/cxl_tax/gem5/build/X86/gem5.opt -d /home/hasanat/abrar/cxl_tax/results/stream_sweep/L_40ns__BW_100GiB_s__S_16 /home/hasanat/abrar/cxl_tax/configs/cxl_tax_se.py --bin /home/hasanat/abrar/cxl_tax/benches/stream_read --args '50000 16' --cpu-type o3 --mem-lat 40ns --mem-bw 100GiB/s

info: Standard input is not a terminal, disabling listeners.
src/sim/syscall_emul.cc:86: warn: ignoring syscall set_robust_list(...)
src/sim/syscall_emul.cc:86: warn: ignoring syscall rseq(...)
src/sim/mem_state.cc:443: info: Increasing stack size by one page.
src/sim/syscall_emul.hh:1127: warn: readlink() called on '/proc/self/exe' may yield unexpected results in various settings.
      Returning '/home/hasanat/abrar/cxl_tax/benches/stream_read'
src/sim/syscall_emul.cc:86: warn: ignoring syscall mprotect(...)
done iters=50000 streams=16 sink=10851025925710964480
[3] Done: L=40ns BW=100GiB/s S=16
[4] Running: L=40ns BW=100GiB/s S=32
Global frequency set at 1000000000000 ticks per second
warn: rounding error > tolerance
    9.313226 rounded to 9
warn: rounding error > tolerance
    9.313226 rounded to 9
warn: No dot file generated. Please install pydot to generate the dot file and pdf.
warn: rounding error > tolerance
    9.313226 rounded to 9
src/base/statistics.hh:279: warn: One of the stats is a legacy stat. Legacy stat is a stat that does not belong to any statistics::Group. Legacy stat is deprecated.
src/base/stats/storage.hh:278: warn: Bucket size (4) does not divide range [1:32] into equal-sized buckets. Rounding up.
src/base/stats/storage.hh:278: warn: Bucket size (4) does not divide range [1:8] into equal-sized buckets. Rounding up.
src/base/remote_gdb.cc:418: warn: Sockets disabled, not accepting gdb connections
gem5 Simulator System.  https://www.gem5.org
gem5 is copyrighted software; use the --copyright option for details.

gem5 version 25.1.0.0
gem5 compiled Apr  8 2026 20:09:11
gem5 started Apr  8 2026 21:17:22
gem5 executing on spartacus-7, pid 2834030
command line: /home/hasanat/abrar/cxl_tax/gem5/build/X86/gem5.opt -d /home/hasanat/abrar/cxl_tax/results/stream_sweep/L_40ns__BW_100GiB_s__S_32 /home/hasanat/abrar/cxl_tax/configs/cxl_tax_se.py --bin /home/hasanat/abrar/cxl_tax/benches/stream_read --args '50000 32' --cpu-type o3 --mem-lat 40ns --mem-bw 100GiB/s

info: Standard input is not a terminal, disabling listeners.
src/sim/syscall_emul.cc:86: warn: ignoring syscall set_robust_list(...)
src/sim/syscall_emul.cc:86: warn: ignoring syscall rseq(...)
src/sim/mem_state.cc:443: info: Increasing stack size by one page.
src/sim/syscall_emul.hh:1127: warn: readlink() called on '/proc/self/exe' may yield unexpected results in various settings.
      Returning '/home/hasanat/abrar/cxl_tax/benches/stream_read'
src/sim/syscall_emul.cc:86: warn: ignoring syscall mprotect(...)
done iters=50000 streams=32 sink=3255307777712377344
[4] Done: L=40ns BW=100GiB/s S=32
[5] Running: L=40ns BW=50GiB/s S=1
Global frequency set at 1000000000000 ticks per second
warn: No dot file generated. Please install pydot to generate the dot file and pdf.
src/base/statistics.hh:279: warn: One of the stats is a legacy stat. Legacy stat is a stat that does not belong to any statistics::Group. Legacy stat is deprecated.
src/base/stats/storage.hh:278: warn: Bucket size (4) does not divide range [1:32] into equal-sized buckets. Rounding up.
src/base/stats/storage.hh:278: warn: Bucket size (4) does not divide range [1:8] into equal-sized buckets. Rounding up.
src/base/remote_gdb.cc:418: warn: Sockets disabled, not accepting gdb connections
gem5 Simulator System.  https://www.gem5.org
gem5 is copyrighted software; use the --copyright option for details.

gem5 version 25.1.0.0
gem5 compiled Apr  8 2026 20:09:11
gem5 started Apr  8 2026 21:18:13
gem5 executing on spartacus-7, pid 2836278
command line: /home/hasanat/abrar/cxl_tax/gem5/build/X86/gem5.opt -d /home/hasanat/abrar/cxl_tax/results/stream_sweep/L_40ns__BW_50GiB_s__S_1 /home/hasanat/abrar/cxl_tax/configs/cxl_tax_se.py --bin /home/hasanat/abrar/cxl_tax/benches/stream_read --args '50000 1' --cpu-type o3 --mem-lat 40ns --mem-bw 50GiB/s

info: Standard input is not a terminal, disabling listeners.
src/sim/syscall_emul.cc:86: warn: ignoring syscall set_robust_list(...)
src/sim/syscall_emul.cc:86: warn: ignoring syscall rseq(...)
src/sim/mem_state.cc:443: info: Increasing stack size by one page.
src/sim/syscall_emul.hh:1127: warn: readlink() called on '/proc/self/exe' may yield unexpected results in various settings.
      Returning '/home/hasanat/abrar/cxl_tax/benches/stream_read'
src/sim/syscall_emul.cc:86: warn: ignoring syscall mprotect(...)
done iters=50000 streams=1 sink=7595718147998017136
[5] Done: L=40ns BW=50GiB/s S=1
[6] Running: L=40ns BW=50GiB/s S=4
Global frequency set at 1000000000000 ticks per second
warn: No dot file generated. Please install pydot to generate the dot file and pdf.
src/base/statistics.hh:279: warn: One of the stats is a legacy stat. Legacy stat is a stat that does not belong to any statistics::Group. Legacy stat is deprecated.
src/base/stats/storage.hh:278: warn: Bucket size (4) does not divide range [1:32] into equal-sized buckets. Rounding up.
src/base/stats/storage.hh:278: warn: Bucket size (4) does not divide range [1:8] into equal-sized buckets. Rounding up.
src/base/remote_gdb.cc:418: warn: Sockets disabled, not accepting gdb connections
gem5 Simulator System.  https://www.gem5.org
gem5 is copyrighted software; use the --copyright option for details.

gem5 version 25.1.0.0
gem5 compiled Apr  8 2026 20:09:11
gem5 started Apr  8 2026 21:18:15
gem5 executing on spartacus-7, pid 2836286
command line: /home/hasanat/abrar/cxl_tax/gem5/build/X86/gem5.opt -d /home/hasanat/abrar/cxl_tax/results/stream_sweep/L_40ns__BW_50GiB_s__S_4 /home/hasanat/abrar/cxl_tax/configs/cxl_tax_se.py --bin /home/hasanat/abrar/cxl_tax/benches/stream_read --args '50000 4' --cpu-type o3 --mem-lat 40ns --mem-bw 50GiB/s

info: Standard input is not a terminal, disabling listeners.
src/sim/syscall_emul.cc:86: warn: ignoring syscall set_robust_list(...)
src/sim/syscall_emul.cc:86: warn: ignoring syscall rseq(...)
src/sim/mem_state.cc:443: info: Increasing stack size by one page.
src/sim/syscall_emul.hh:1127: warn: readlink() called on '/proc/self/exe' may yield unexpected results in various settings.
      Returning '/home/hasanat/abrar/cxl_tax/benches/stream_read'
src/sim/syscall_emul.cc:86: warn: ignoring syscall mprotect(...)
done iters=50000 streams=4 sink=11936128518282516928
[6] Done: L=40ns BW=50GiB/s S=4
[7] Running: L=40ns BW=50GiB/s S=8
Global frequency set at 1000000000000 ticks per second
warn: No dot file generated. Please install pydot to generate the dot file and pdf.
src/base/statistics.hh:279: warn: One of the stats is a legacy stat. Legacy stat is a stat that does not belong to any statistics::Group. Legacy stat is deprecated.
src/base/stats/storage.hh:278: warn: Bucket size (4) does not divide range [1:32] into equal-sized buckets. Rounding up.
src/base/stats/storage.hh:278: warn: Bucket size (4) does not divide range [1:8] into equal-sized buckets. Rounding up.
src/base/remote_gdb.cc:418: warn: Sockets disabled, not accepting gdb connections
gem5 Simulator System.  https://www.gem5.org
gem5 is copyrighted software; use the --copyright option for details.

gem5 version 25.1.0.0
gem5 compiled Apr  8 2026 20:09:11
gem5 started Apr  8 2026 21:18:23
gem5 executing on spartacus-7, pid 2836315
command line: /home/hasanat/abrar/cxl_tax/gem5/build/X86/gem5.opt -d /home/hasanat/abrar/cxl_tax/results/stream_sweep/L_40ns__BW_50GiB_s__S_8 /home/hasanat/abrar/cxl_tax/configs/cxl_tax_se.py --bin /home/hasanat/abrar/cxl_tax/benches/stream_read --args '50000 8' --cpu-type o3 --mem-lat 40ns --mem-bw 50GiB/s

info: Standard input is not a terminal, disabling listeners.
src/sim/syscall_emul.cc:86: warn: ignoring syscall set_robust_list(...)
src/sim/syscall_emul.cc:86: warn: ignoring syscall rseq(...)
src/sim/mem_state.cc:443: info: Increasing stack size by one page.
src/sim/syscall_emul.hh:1127: warn: readlink() called on '/proc/self/exe' may yield unexpected results in various settings.
      Returning '/home/hasanat/abrar/cxl_tax/benches/stream_read'
src/sim/syscall_emul.cc:86: warn: ignoring syscall mprotect(...)
done iters=50000 streams=8 sink=5425512962855482240
[7] Done: L=40ns BW=50GiB/s S=8
[8] Running: L=40ns BW=50GiB/s S=16
Global frequency set at 1000000000000 ticks per second
warn: No dot file generated. Please install pydot to generate the dot file and pdf.
src/base/statistics.hh:279: warn: One of the stats is a legacy stat. Legacy stat is a stat that does not belong to any statistics::Group. Legacy stat is deprecated.
src/base/stats/storage.hh:278: warn: Bucket size (4) does not divide range [1:32] into equal-sized buckets. Rounding up.
src/base/stats/storage.hh:278: warn: Bucket size (4) does not divide range [1:8] into equal-sized buckets. Rounding up.
src/base/remote_gdb.cc:418: warn: Sockets disabled, not accepting gdb connections
gem5 Simulator System.  https://www.gem5.org
gem5 is copyrighted software; use the --copyright option for details.

gem5 version 25.1.0.0
gem5 compiled Apr  8 2026 20:09:11
gem5 started Apr  8 2026 21:18:35
gem5 executing on spartacus-7, pid 2836677
command line: /home/hasanat/abrar/cxl_tax/gem5/build/X86/gem5.opt -d /home/hasanat/abrar/cxl_tax/results/stream_sweep/L_40ns__BW_50GiB_s__S_16 /home/hasanat/abrar/cxl_tax/configs/cxl_tax_se.py --bin /home/hasanat/abrar/cxl_tax/benches/stream_read --args '50000 16' --cpu-type o3 --mem-lat 40ns --mem-bw 50GiB/s

info: Standard input is not a terminal, disabling listeners.
src/sim/syscall_emul.cc:86: warn: ignoring syscall set_robust_list(...)
src/sim/syscall_emul.cc:86: warn: ignoring syscall rseq(...)
src/sim/mem_state.cc:443: info: Increasing stack size by one page.
src/sim/syscall_emul.hh:1127: warn: readlink() called on '/proc/self/exe' may yield unexpected results in various settings.
      Returning '/home/hasanat/abrar/cxl_tax/benches/stream_read'
src/sim/syscall_emul.cc:86: warn: ignoring syscall mprotect(...)
done iters=50000 streams=16 sink=10851025925710964480
[8] Done: L=40ns BW=50GiB/s S=16
[9] Running: L=40ns BW=50GiB/s S=32
Global frequency set at 1000000000000 ticks per second
warn: No dot file generated. Please install pydot to generate the dot file and pdf.
src/base/statistics.hh:279: warn: One of the stats is a legacy stat. Legacy stat is a stat that does not belong to any statistics::Group. Legacy stat is deprecated.
src/base/stats/storage.hh:278: warn: Bucket size (4) does not divide range [1:32] into equal-sized buckets. Rounding up.
src/base/stats/storage.hh:278: warn: Bucket size (4) does not divide range [1:8] into equal-sized buckets. Rounding up.
src/base/remote_gdb.cc:418: warn: Sockets disabled, not accepting gdb connections
gem5 Simulator System.  https://www.gem5.org
gem5 is copyrighted software; use the --copyright option for details.

gem5 version 25.1.0.0
gem5 compiled Apr  8 2026 20:09:11
gem5 started Apr  8 2026 21:19:03
gem5 executing on spartacus-7, pid 2836986
command line: /home/hasanat/abrar/cxl_tax/gem5/build/X86/gem5.opt -d /home/hasanat/abrar/cxl_tax/results/stream_sweep/L_40ns__BW_50GiB_s__S_32 /home/hasanat/abrar/cxl_tax/configs/cxl_tax_se.py --bin /home/hasanat/abrar/cxl_tax/benches/stream_read --args '50000 32' --cpu-type o3 --mem-lat 40ns --mem-bw 50GiB/s

info: Standard input is not a terminal, disabling listeners.
src/sim/syscall_emul.cc:86: warn: ignoring syscall set_robust_list(...)
src/sim/syscall_emul.cc:86: warn: ignoring syscall rseq(...)
src/sim/mem_state.cc:443: info: Increasing stack size by one page.
src/sim/syscall_emul.hh:1127: warn: readlink() called on '/proc/self/exe' may yield unexpected results in various settings.
      Returning '/home/hasanat/abrar/cxl_tax/benches/stream_read'
src/sim/syscall_emul.cc:86: warn: ignoring syscall mprotect(...)
done iters=50000 streams=32 sink=3255307777712377344
[9] Done: L=40ns BW=50GiB/s S=32
Array task 0 complete.
