[70] Running: L=300ns BW=25GiB/s K=1
Global frequency set at 1000000000000 ticks per second
warn: rounding error > tolerance
    37.252903 rounded to 37
warn: rounding error > tolerance
    37.252903 rounded to 37
warn: No dot file generated. Please install pydot to generate the dot file and pdf.
warn: rounding error > tolerance
    37.252903 rounded to 37
src/base/statistics.hh:279: warn: One of the stats is a legacy stat. Legacy stat is a stat that does not belong to any statistics::Group. Legacy stat is deprecated.
src/base/remote_gdb.cc:418: warn: Sockets disabled, not accepting gdb connections
gem5 Simulator System.  https://www.gem5.org
gem5 is copyrighted software; use the --copyright option for details.

gem5 version 25.1.0.0
gem5 compiled Apr  8 2026 20:09:11
gem5 started Apr  8 2026 20:51:08
gem5 executing on spartacus-7, pid 2803318
command line: /home/hasanat/abrar/cxl_tax/gem5/build/X86/gem5.opt -d /home/hasanat/abrar/cxl_tax/results/fence_sweep/L_300ns_BW_25GiB/s_K_1 /home/hasanat/abrar/cxl_tax/configs/cxl_tax_se.py --bin /home/hasanat/abrar/cxl_tax/benches/fence_sweep --args '2000000 1' --mem-lat 300ns --mem-bw 25GiB/s

info: Standard input is not a terminal, disabling listeners.
src/sim/syscall_emul.cc:86: warn: ignoring syscall set_robust_list(...)
src/sim/syscall_emul.cc:86: warn: ignoring syscall rseq(...)
src/sim/mem_state.cc:443: info: Increasing stack size by one page.
src/sim/syscall_emul.hh:1127: warn: readlink() called on '/proc/self/exe' may yield unexpected results in various settings.
      Returning '/home/hasanat/abrar/cxl_tax/benches/fence_sweep'
src/sim/syscall_emul.cc:86: warn: ignoring syscall mprotect(...)
done n=2000000 K=1 last=1999999
[70] Done: L=300ns BW=25GiB/s K=1
[71] Running: L=300ns BW=25GiB/s K=4
Global frequency set at 1000000000000 ticks per second
warn: rounding error > tolerance
    37.252903 rounded to 37
warn: rounding error > tolerance
    37.252903 rounded to 37
warn: No dot file generated. Please install pydot to generate the dot file and pdf.
warn: rounding error > tolerance
    37.252903 rounded to 37
src/base/statistics.hh:279: warn: One of the stats is a legacy stat. Legacy stat is a stat that does not belong to any statistics::Group. Legacy stat is deprecated.
src/base/remote_gdb.cc:418: warn: Sockets disabled, not accepting gdb connections
gem5 Simulator System.  https://www.gem5.org
gem5 is copyrighted software; use the --copyright option for details.

gem5 version 25.1.0.0
gem5 compiled Apr  8 2026 20:09:11
gem5 started Apr  8 2026 20:51:32
gem5 executing on spartacus-7, pid 2803437
command line: /home/hasanat/abrar/cxl_tax/gem5/build/X86/gem5.opt -d /home/hasanat/abrar/cxl_tax/results/fence_sweep/L_300ns_BW_25GiB/s_K_4 /home/hasanat/abrar/cxl_tax/configs/cxl_tax_se.py --bin /home/hasanat/abrar/cxl_tax/benches/fence_sweep --args '2000000 4' --mem-lat 300ns --mem-bw 25GiB/s

info: Standard input is not a terminal, disabling listeners.
src/sim/syscall_emul.cc:86: warn: ignoring syscall set_robust_list(...)
src/sim/syscall_emul.cc:86: warn: ignoring syscall rseq(...)
src/sim/mem_state.cc:443: info: Increasing stack size by one page.
src/sim/syscall_emul.hh:1127: warn: readlink() called on '/proc/self/exe' may yield unexpected results in various settings.
      Returning '/home/hasanat/abrar/cxl_tax/benches/fence_sweep'
src/sim/syscall_emul.cc:86: warn: ignoring syscall mprotect(...)
done n=2000000 K=4 last=1999999
[71] Done: L=300ns BW=25GiB/s K=4
[72] Running: L=300ns BW=25GiB/s K=16
Global frequency set at 1000000000000 ticks per second
warn: rounding error > tolerance
    37.252903 rounded to 37
warn: rounding error > tolerance
    37.252903 rounded to 37
warn: No dot file generated. Please install pydot to generate the dot file and pdf.
warn: rounding error > tolerance
    37.252903 rounded to 37
src/base/statistics.hh:279: warn: One of the stats is a legacy stat. Legacy stat is a stat that does not belong to any statistics::Group. Legacy stat is deprecated.
src/base/remote_gdb.cc:418: warn: Sockets disabled, not accepting gdb connections
gem5 Simulator System.  https://www.gem5.org
gem5 is copyrighted software; use the --copyright option for details.

gem5 version 25.1.0.0
gem5 compiled Apr  8 2026 20:09:11
gem5 started Apr  8 2026 20:51:55
gem5 executing on spartacus-7, pid 2803615
command line: /home/hasanat/abrar/cxl_tax/gem5/build/X86/gem5.opt -d /home/hasanat/abrar/cxl_tax/results/fence_sweep/L_300ns_BW_25GiB/s_K_16 /home/hasanat/abrar/cxl_tax/configs/cxl_tax_se.py --bin /home/hasanat/abrar/cxl_tax/benches/fence_sweep --args '2000000 16' --mem-lat 300ns --mem-bw 25GiB/s

info: Standard input is not a terminal, disabling listeners.
src/sim/syscall_emul.cc:86: warn: ignoring syscall set_robust_list(...)
src/sim/syscall_emul.cc:86: warn: ignoring syscall rseq(...)
src/sim/mem_state.cc:443: info: Increasing stack size by one page.
src/sim/syscall_emul.hh:1127: warn: readlink() called on '/proc/self/exe' may yield unexpected results in various settings.
      Returning '/home/hasanat/abrar/cxl_tax/benches/fence_sweep'
src/sim/syscall_emul.cc:86: warn: ignoring syscall mprotect(...)
done n=2000000 K=16 last=1999999
[72] Done: L=300ns BW=25GiB/s K=16
[73] Running: L=300ns BW=25GiB/s K=64
Global frequency set at 1000000000000 ticks per second
warn: rounding error > tolerance
    37.252903 rounded to 37
warn: rounding error > tolerance
    37.252903 rounded to 37
warn: No dot file generated. Please install pydot to generate the dot file and pdf.
warn: rounding error > tolerance
    37.252903 rounded to 37
src/base/statistics.hh:279: warn: One of the stats is a legacy stat. Legacy stat is a stat that does not belong to any statistics::Group. Legacy stat is deprecated.
src/base/remote_gdb.cc:418: warn: Sockets disabled, not accepting gdb connections
gem5 Simulator System.  https://www.gem5.org
gem5 is copyrighted software; use the --copyright option for details.

gem5 version 25.1.0.0
gem5 compiled Apr  8 2026 20:09:11
gem5 started Apr  8 2026 20:52:17
gem5 executing on spartacus-7, pid 2803763
command line: /home/hasanat/abrar/cxl_tax/gem5/build/X86/gem5.opt -d /home/hasanat/abrar/cxl_tax/results/fence_sweep/L_300ns_BW_25GiB/s_K_64 /home/hasanat/abrar/cxl_tax/configs/cxl_tax_se.py --bin /home/hasanat/abrar/cxl_tax/benches/fence_sweep --args '2000000 64' --mem-lat 300ns --mem-bw 25GiB/s

info: Standard input is not a terminal, disabling listeners.
src/sim/syscall_emul.cc:86: warn: ignoring syscall set_robust_list(...)
src/sim/syscall_emul.cc:86: warn: ignoring syscall rseq(...)
src/sim/mem_state.cc:443: info: Increasing stack size by one page.
src/sim/syscall_emul.hh:1127: warn: readlink() called on '/proc/self/exe' may yield unexpected results in various settings.
      Returning '/home/hasanat/abrar/cxl_tax/benches/fence_sweep'
src/sim/syscall_emul.cc:86: warn: ignoring syscall mprotect(...)
done n=2000000 K=64 last=1999999
[73] Done: L=300ns BW=25GiB/s K=64
[74] Running: L=300ns BW=25GiB/s K=256
Global frequency set at 1000000000000 ticks per second
warn: rounding error > tolerance
    37.252903 rounded to 37
warn: rounding error > tolerance
    37.252903 rounded to 37
warn: No dot file generated. Please install pydot to generate the dot file and pdf.
warn: rounding error > tolerance
    37.252903 rounded to 37
src/base/statistics.hh:279: warn: One of the stats is a legacy stat. Legacy stat is a stat that does not belong to any statistics::Group. Legacy stat is deprecated.
src/base/remote_gdb.cc:418: warn: Sockets disabled, not accepting gdb connections
gem5 Simulator System.  https://www.gem5.org
gem5 is copyrighted software; use the --copyright option for details.

gem5 version 25.1.0.0
gem5 compiled Apr  8 2026 20:09:11
gem5 started Apr  8 2026 20:52:39
gem5 executing on spartacus-7, pid 2804048
command line: /home/hasanat/abrar/cxl_tax/gem5/build/X86/gem5.opt -d /home/hasanat/abrar/cxl_tax/results/fence_sweep/L_300ns_BW_25GiB/s_K_256 /home/hasanat/abrar/cxl_tax/configs/cxl_tax_se.py --bin /home/hasanat/abrar/cxl_tax/benches/fence_sweep --args '2000000 256' --mem-lat 300ns --mem-bw 25GiB/s

info: Standard input is not a terminal, disabling listeners.
src/sim/syscall_emul.cc:86: warn: ignoring syscall set_robust_list(...)
src/sim/syscall_emul.cc:86: warn: ignoring syscall rseq(...)
src/sim/mem_state.cc:443: info: Increasing stack size by one page.
src/sim/syscall_emul.hh:1127: warn: readlink() called on '/proc/self/exe' may yield unexpected results in various settings.
      Returning '/home/hasanat/abrar/cxl_tax/benches/fence_sweep'
src/sim/syscall_emul.cc:86: warn: ignoring syscall mprotect(...)
done n=2000000 K=256 last=1999999
[74] Done: L=300ns BW=25GiB/s K=256
[75] Running: L=300ns BW=12.5GiB/s K=1
Global frequency set at 1000000000000 ticks per second
warn: No dot file generated. Please install pydot to generate the dot file and pdf.
src/base/statistics.hh:279: warn: One of the stats is a legacy stat. Legacy stat is a stat that does not belong to any statistics::Group. Legacy stat is deprecated.
src/base/remote_gdb.cc:418: warn: Sockets disabled, not accepting gdb connections
gem5 Simulator System.  https://www.gem5.org
gem5 is copyrighted software; use the --copyright option for details.

gem5 version 25.1.0.0
gem5 compiled Apr  8 2026 20:09:11
gem5 started Apr  8 2026 20:53:00
gem5 executing on spartacus-7, pid 2808225
command line: /home/hasanat/abrar/cxl_tax/gem5/build/X86/gem5.opt -d /home/hasanat/abrar/cxl_tax/results/fence_sweep/L_300ns_BW_12.5GiB/s_K_1 /home/hasanat/abrar/cxl_tax/configs/cxl_tax_se.py --bin /home/hasanat/abrar/cxl_tax/benches/fence_sweep --args '2000000 1' --mem-lat 300ns --mem-bw 12.5GiB/s

info: Standard input is not a terminal, disabling listeners.
src/sim/syscall_emul.cc:86: warn: ignoring syscall set_robust_list(...)
src/sim/syscall_emul.cc:86: warn: ignoring syscall rseq(...)
src/sim/mem_state.cc:443: info: Increasing stack size by one page.
src/sim/syscall_emul.hh:1127: warn: readlink() called on '/proc/self/exe' may yield unexpected results in various settings.
      Returning '/home/hasanat/abrar/cxl_tax/benches/fence_sweep'
src/sim/syscall_emul.cc:86: warn: ignoring syscall mprotect(...)
done n=2000000 K=1 last=1999999
[75] Done: L=300ns BW=12.5GiB/s K=1
[76] Running: L=300ns BW=12.5GiB/s K=4
Global frequency set at 1000000000000 ticks per second
warn: No dot file generated. Please install pydot to generate the dot file and pdf.
src/base/statistics.hh:279: warn: One of the stats is a legacy stat. Legacy stat is a stat that does not belong to any statistics::Group. Legacy stat is deprecated.
src/base/remote_gdb.cc:418: warn: Sockets disabled, not accepting gdb connections
gem5 Simulator System.  https://www.gem5.org
gem5 is copyrighted software; use the --copyright option for details.

gem5 version 25.1.0.0
gem5 compiled Apr  8 2026 20:09:11
gem5 started Apr  8 2026 20:53:24
gem5 executing on spartacus-7, pid 2808324
command line: /home/hasanat/abrar/cxl_tax/gem5/build/X86/gem5.opt -d /home/hasanat/abrar/cxl_tax/results/fence_sweep/L_300ns_BW_12.5GiB/s_K_4 /home/hasanat/abrar/cxl_tax/configs/cxl_tax_se.py --bin /home/hasanat/abrar/cxl_tax/benches/fence_sweep --args '2000000 4' --mem-lat 300ns --mem-bw 12.5GiB/s

info: Standard input is not a terminal, disabling listeners.
src/sim/syscall_emul.cc:86: warn: ignoring syscall set_robust_list(...)
src/sim/syscall_emul.cc:86: warn: ignoring syscall rseq(...)
src/sim/mem_state.cc:443: info: Increasing stack size by one page.
src/sim/syscall_emul.hh:1127: warn: readlink() called on '/proc/self/exe' may yield unexpected results in various settings.
      Returning '/home/hasanat/abrar/cxl_tax/benches/fence_sweep'
src/sim/syscall_emul.cc:86: warn: ignoring syscall mprotect(...)
done n=2000000 K=4 last=1999999
[76] Done: L=300ns BW=12.5GiB/s K=4
[77] Running: L=300ns BW=12.5GiB/s K=16
Global frequency set at 1000000000000 ticks per second
warn: No dot file generated. Please install pydot to generate the dot file and pdf.
src/base/statistics.hh:279: warn: One of the stats is a legacy stat. Legacy stat is a stat that does not belong to any statistics::Group. Legacy stat is deprecated.
src/base/remote_gdb.cc:418: warn: Sockets disabled, not accepting gdb connections
gem5 Simulator System.  https://www.gem5.org
gem5 is copyrighted software; use the --copyright option for details.

gem5 version 25.1.0.0
gem5 compiled Apr  8 2026 20:09:11
gem5 started Apr  8 2026 20:53:47
gem5 executing on spartacus-7, pid 2808493
command line: /home/hasanat/abrar/cxl_tax/gem5/build/X86/gem5.opt -d /home/hasanat/abrar/cxl_tax/results/fence_sweep/L_300ns_BW_12.5GiB/s_K_16 /home/hasanat/abrar/cxl_tax/configs/cxl_tax_se.py --bin /home/hasanat/abrar/cxl_tax/benches/fence_sweep --args '2000000 16' --mem-lat 300ns --mem-bw 12.5GiB/s

info: Standard input is not a terminal, disabling listeners.
src/sim/syscall_emul.cc:86: warn: ignoring syscall set_robust_list(...)
src/sim/syscall_emul.cc:86: warn: ignoring syscall rseq(...)
src/sim/mem_state.cc:443: info: Increasing stack size by one page.
src/sim/syscall_emul.hh:1127: warn: readlink() called on '/proc/self/exe' may yield unexpected results in various settings.
      Returning '/home/hasanat/abrar/cxl_tax/benches/fence_sweep'
src/sim/syscall_emul.cc:86: warn: ignoring syscall mprotect(...)
done n=2000000 K=16 last=1999999
[77] Done: L=300ns BW=12.5GiB/s K=16
[78] Running: L=300ns BW=12.5GiB/s K=64
Global frequency set at 1000000000000 ticks per second
warn: No dot file generated. Please install pydot to generate the dot file and pdf.
src/base/statistics.hh:279: warn: One of the stats is a legacy stat. Legacy stat is a stat that does not belong to any statistics::Group. Legacy stat is deprecated.
src/base/remote_gdb.cc:418: warn: Sockets disabled, not accepting gdb connections
gem5 Simulator System.  https://www.gem5.org
gem5 is copyrighted software; use the --copyright option for details.

gem5 version 25.1.0.0
gem5 compiled Apr  8 2026 20:09:11
gem5 started Apr  8 2026 20:54:09
gem5 executing on spartacus-7, pid 2809389
command line: /home/hasanat/abrar/cxl_tax/gem5/build/X86/gem5.opt -d /home/hasanat/abrar/cxl_tax/results/fence_sweep/L_300ns_BW_12.5GiB/s_K_64 /home/hasanat/abrar/cxl_tax/configs/cxl_tax_se.py --bin /home/hasanat/abrar/cxl_tax/benches/fence_sweep --args '2000000 64' --mem-lat 300ns --mem-bw 12.5GiB/s

info: Standard input is not a terminal, disabling listeners.
src/sim/syscall_emul.cc:86: warn: ignoring syscall set_robust_list(...)
src/sim/syscall_emul.cc:86: warn: ignoring syscall rseq(...)
src/sim/mem_state.cc:443: info: Increasing stack size by one page.
src/sim/syscall_emul.hh:1127: warn: readlink() called on '/proc/self/exe' may yield unexpected results in various settings.
      Returning '/home/hasanat/abrar/cxl_tax/benches/fence_sweep'
src/sim/syscall_emul.cc:86: warn: ignoring syscall mprotect(...)
done n=2000000 K=64 last=1999999
[78] Done: L=300ns BW=12.5GiB/s K=64
[79] Running: L=300ns BW=12.5GiB/s K=256
Global frequency set at 1000000000000 ticks per second
warn: No dot file generated. Please install pydot to generate the dot file and pdf.
src/base/statistics.hh:279: warn: One of the stats is a legacy stat. Legacy stat is a stat that does not belong to any statistics::Group. Legacy stat is deprecated.
src/base/remote_gdb.cc:418: warn: Sockets disabled, not accepting gdb connections
gem5 Simulator System.  https://www.gem5.org
gem5 is copyrighted software; use the --copyright option for details.

gem5 version 25.1.0.0
gem5 compiled Apr  8 2026 20:09:11
gem5 started Apr  8 2026 20:54:31
gem5 executing on spartacus-7, pid 2809533
command line: /home/hasanat/abrar/cxl_tax/gem5/build/X86/gem5.opt -d /home/hasanat/abrar/cxl_tax/results/fence_sweep/L_300ns_BW_12.5GiB/s_K_256 /home/hasanat/abrar/cxl_tax/configs/cxl_tax_se.py --bin /home/hasanat/abrar/cxl_tax/benches/fence_sweep --args '2000000 256' --mem-lat 300ns --mem-bw 12.5GiB/s

info: Standard input is not a terminal, disabling listeners.
src/sim/syscall_emul.cc:86: warn: ignoring syscall set_robust_list(...)
src/sim/syscall_emul.cc:86: warn: ignoring syscall rseq(...)
src/sim/mem_state.cc:443: info: Increasing stack size by one page.
src/sim/syscall_emul.hh:1127: warn: readlink() called on '/proc/self/exe' may yield unexpected results in various settings.
      Returning '/home/hasanat/abrar/cxl_tax/benches/fence_sweep'
src/sim/syscall_emul.cc:86: warn: ignoring syscall mprotect(...)
done n=2000000 K=256 last=1999999
[79] Done: L=300ns BW=12.5GiB/s K=256
Array task 7 complete.
