[40] Running: L=160ns BW=100GiB/s K=1
Global frequency set at 1000000000000 ticks per second
warn: rounding error > tolerance
    9.313226 rounded to 9
warn: rounding error > tolerance
    9.313226 rounded to 9
warn: No dot file generated. Please install pydot to generate the dot file and pdf.
warn: rounding error > tolerance
    9.313226 rounded to 9
src/base/statistics.hh:279: warn: One of the stats is a legacy stat. Legacy stat is a stat that does not belong to any statistics::Group. Legacy stat is deprecated.
src/base/remote_gdb.cc:418: warn: Sockets disabled, not accepting gdb connections
gem5 Simulator System.  https://www.gem5.org
gem5 is copyrighted software; use the --copyright option for details.

gem5 version 25.1.0.0
gem5 compiled Apr  8 2026 20:09:11
gem5 started Apr  8 2026 20:51:08
gem5 executing on spartacus-7, pid 2803304
command line: /home/hasanat/abrar/cxl_tax/gem5/build/X86/gem5.opt -d /home/hasanat/abrar/cxl_tax/results/fence_sweep/L_160ns_BW_100GiB/s_K_1 /home/hasanat/abrar/cxl_tax/configs/cxl_tax_se.py --bin /home/hasanat/abrar/cxl_tax/benches/fence_sweep --args '2000000 1' --mem-lat 160ns --mem-bw 100GiB/s

info: Standard input is not a terminal, disabling listeners.
src/sim/syscall_emul.cc:86: warn: ignoring syscall set_robust_list(...)
src/sim/syscall_emul.cc:86: warn: ignoring syscall rseq(...)
src/sim/mem_state.cc:443: info: Increasing stack size by one page.
src/sim/syscall_emul.hh:1127: warn: readlink() called on '/proc/self/exe' may yield unexpected results in various settings.
      Returning '/home/hasanat/abrar/cxl_tax/benches/fence_sweep'
src/sim/syscall_emul.cc:86: warn: ignoring syscall mprotect(...)
done n=2000000 K=1 last=1999999
[40] Done: L=160ns BW=100GiB/s K=1
[41] Running: L=160ns BW=100GiB/s K=4
Global frequency set at 1000000000000 ticks per second
warn: rounding error > tolerance
    9.313226 rounded to 9
warn: rounding error > tolerance
    9.313226 rounded to 9
warn: No dot file generated. Please install pydot to generate the dot file and pdf.
warn: rounding error > tolerance
    9.313226 rounded to 9
src/base/statistics.hh:279: warn: One of the stats is a legacy stat. Legacy stat is a stat that does not belong to any statistics::Group. Legacy stat is deprecated.
src/base/remote_gdb.cc:418: warn: Sockets disabled, not accepting gdb connections
gem5 Simulator System.  https://www.gem5.org
gem5 is copyrighted software; use the --copyright option for details.

gem5 version 25.1.0.0
gem5 compiled Apr  8 2026 20:09:11
gem5 started Apr  8 2026 20:51:32
gem5 executing on spartacus-7, pid 2803435
command line: /home/hasanat/abrar/cxl_tax/gem5/build/X86/gem5.opt -d /home/hasanat/abrar/cxl_tax/results/fence_sweep/L_160ns_BW_100GiB/s_K_4 /home/hasanat/abrar/cxl_tax/configs/cxl_tax_se.py --bin /home/hasanat/abrar/cxl_tax/benches/fence_sweep --args '2000000 4' --mem-lat 160ns --mem-bw 100GiB/s

info: Standard input is not a terminal, disabling listeners.
src/sim/syscall_emul.cc:86: warn: ignoring syscall set_robust_list(...)
src/sim/syscall_emul.cc:86: warn: ignoring syscall rseq(...)
src/sim/mem_state.cc:443: info: Increasing stack size by one page.
src/sim/syscall_emul.hh:1127: warn: readlink() called on '/proc/self/exe' may yield unexpected results in various settings.
      Returning '/home/hasanat/abrar/cxl_tax/benches/fence_sweep'
src/sim/syscall_emul.cc:86: warn: ignoring syscall mprotect(...)
done n=2000000 K=4 last=1999999
[41] Done: L=160ns BW=100GiB/s K=4
[42] Running: L=160ns BW=100GiB/s K=16
Global frequency set at 1000000000000 ticks per second
warn: rounding error > tolerance
    9.313226 rounded to 9
warn: rounding error > tolerance
    9.313226 rounded to 9
warn: No dot file generated. Please install pydot to generate the dot file and pdf.
warn: rounding error > tolerance
    9.313226 rounded to 9
src/base/statistics.hh:279: warn: One of the stats is a legacy stat. Legacy stat is a stat that does not belong to any statistics::Group. Legacy stat is deprecated.
src/base/remote_gdb.cc:418: warn: Sockets disabled, not accepting gdb connections
gem5 Simulator System.  https://www.gem5.org
gem5 is copyrighted software; use the --copyright option for details.

gem5 version 25.1.0.0
gem5 compiled Apr  8 2026 20:09:11
gem5 started Apr  8 2026 20:51:55
gem5 executing on spartacus-7, pid 2803609
command line: /home/hasanat/abrar/cxl_tax/gem5/build/X86/gem5.opt -d /home/hasanat/abrar/cxl_tax/results/fence_sweep/L_160ns_BW_100GiB/s_K_16 /home/hasanat/abrar/cxl_tax/configs/cxl_tax_se.py --bin /home/hasanat/abrar/cxl_tax/benches/fence_sweep --args '2000000 16' --mem-lat 160ns --mem-bw 100GiB/s

info: Standard input is not a terminal, disabling listeners.
src/sim/syscall_emul.cc:86: warn: ignoring syscall set_robust_list(...)
src/sim/syscall_emul.cc:86: warn: ignoring syscall rseq(...)
src/sim/mem_state.cc:443: info: Increasing stack size by one page.
src/sim/syscall_emul.hh:1127: warn: readlink() called on '/proc/self/exe' may yield unexpected results in various settings.
      Returning '/home/hasanat/abrar/cxl_tax/benches/fence_sweep'
src/sim/syscall_emul.cc:86: warn: ignoring syscall mprotect(...)
done n=2000000 K=16 last=1999999
[42] Done: L=160ns BW=100GiB/s K=16
[43] Running: L=160ns BW=100GiB/s K=64
Global frequency set at 1000000000000 ticks per second
warn: rounding error > tolerance
    9.313226 rounded to 9
warn: rounding error > tolerance
    9.313226 rounded to 9
warn: No dot file generated. Please install pydot to generate the dot file and pdf.
warn: rounding error > tolerance
    9.313226 rounded to 9
src/base/statistics.hh:279: warn: One of the stats is a legacy stat. Legacy stat is a stat that does not belong to any statistics::Group. Legacy stat is deprecated.
src/base/remote_gdb.cc:418: warn: Sockets disabled, not accepting gdb connections
gem5 Simulator System.  https://www.gem5.org
gem5 is copyrighted software; use the --copyright option for details.

gem5 version 25.1.0.0
gem5 compiled Apr  8 2026 20:09:11
gem5 started Apr  8 2026 20:52:17
gem5 executing on spartacus-7, pid 2803751
command line: /home/hasanat/abrar/cxl_tax/gem5/build/X86/gem5.opt -d /home/hasanat/abrar/cxl_tax/results/fence_sweep/L_160ns_BW_100GiB/s_K_64 /home/hasanat/abrar/cxl_tax/configs/cxl_tax_se.py --bin /home/hasanat/abrar/cxl_tax/benches/fence_sweep --args '2000000 64' --mem-lat 160ns --mem-bw 100GiB/s

info: Standard input is not a terminal, disabling listeners.
src/sim/syscall_emul.cc:86: warn: ignoring syscall set_robust_list(...)
src/sim/syscall_emul.cc:86: warn: ignoring syscall rseq(...)
src/sim/mem_state.cc:443: info: Increasing stack size by one page.
src/sim/syscall_emul.hh:1127: warn: readlink() called on '/proc/self/exe' may yield unexpected results in various settings.
      Returning '/home/hasanat/abrar/cxl_tax/benches/fence_sweep'
src/sim/syscall_emul.cc:86: warn: ignoring syscall mprotect(...)
done n=2000000 K=64 last=1999999
[43] Done: L=160ns BW=100GiB/s K=64
[44] Running: L=160ns BW=100GiB/s K=256
Global frequency set at 1000000000000 ticks per second
warn: rounding error > tolerance
    9.313226 rounded to 9
warn: rounding error > tolerance
    9.313226 rounded to 9
warn: No dot file generated. Please install pydot to generate the dot file and pdf.
warn: rounding error > tolerance
    9.313226 rounded to 9
src/base/statistics.hh:279: warn: One of the stats is a legacy stat. Legacy stat is a stat that does not belong to any statistics::Group. Legacy stat is deprecated.
src/base/remote_gdb.cc:418: warn: Sockets disabled, not accepting gdb connections
gem5 Simulator System.  https://www.gem5.org
gem5 is copyrighted software; use the --copyright option for details.

gem5 version 25.1.0.0
gem5 compiled Apr  8 2026 20:09:11
gem5 started Apr  8 2026 20:52:38
gem5 executing on spartacus-7, pid 2804037
command line: /home/hasanat/abrar/cxl_tax/gem5/build/X86/gem5.opt -d /home/hasanat/abrar/cxl_tax/results/fence_sweep/L_160ns_BW_100GiB/s_K_256 /home/hasanat/abrar/cxl_tax/configs/cxl_tax_se.py --bin /home/hasanat/abrar/cxl_tax/benches/fence_sweep --args '2000000 256' --mem-lat 160ns --mem-bw 100GiB/s

info: Standard input is not a terminal, disabling listeners.
src/sim/syscall_emul.cc:86: warn: ignoring syscall set_robust_list(...)
src/sim/syscall_emul.cc:86: warn: ignoring syscall rseq(...)
src/sim/mem_state.cc:443: info: Increasing stack size by one page.
src/sim/syscall_emul.hh:1127: warn: readlink() called on '/proc/self/exe' may yield unexpected results in various settings.
      Returning '/home/hasanat/abrar/cxl_tax/benches/fence_sweep'
src/sim/syscall_emul.cc:86: warn: ignoring syscall mprotect(...)
done n=2000000 K=256 last=1999999
[44] Done: L=160ns BW=100GiB/s K=256
[45] Running: L=160ns BW=50GiB/s K=1
Global frequency set at 1000000000000 ticks per second
warn: No dot file generated. Please install pydot to generate the dot file and pdf.
src/base/statistics.hh:279: warn: One of the stats is a legacy stat. Legacy stat is a stat that does not belong to any statistics::Group. Legacy stat is deprecated.
src/base/remote_gdb.cc:418: warn: Sockets disabled, not accepting gdb connections
gem5 Simulator System.  https://www.gem5.org
gem5 is copyrighted software; use the --copyright option for details.

gem5 version 25.1.0.0
gem5 compiled Apr  8 2026 20:09:11
gem5 started Apr  8 2026 20:53:00
gem5 executing on spartacus-7, pid 2808214
command line: /home/hasanat/abrar/cxl_tax/gem5/build/X86/gem5.opt -d /home/hasanat/abrar/cxl_tax/results/fence_sweep/L_160ns_BW_50GiB/s_K_1 /home/hasanat/abrar/cxl_tax/configs/cxl_tax_se.py --bin /home/hasanat/abrar/cxl_tax/benches/fence_sweep --args '2000000 1' --mem-lat 160ns --mem-bw 50GiB/s

info: Standard input is not a terminal, disabling listeners.
src/sim/syscall_emul.cc:86: warn: ignoring syscall set_robust_list(...)
src/sim/syscall_emul.cc:86: warn: ignoring syscall rseq(...)
src/sim/mem_state.cc:443: info: Increasing stack size by one page.
src/sim/syscall_emul.hh:1127: warn: readlink() called on '/proc/self/exe' may yield unexpected results in various settings.
      Returning '/home/hasanat/abrar/cxl_tax/benches/fence_sweep'
src/sim/syscall_emul.cc:86: warn: ignoring syscall mprotect(...)
done n=2000000 K=1 last=1999999
[45] Done: L=160ns BW=50GiB/s K=1
[46] Running: L=160ns BW=50GiB/s K=4
Global frequency set at 1000000000000 ticks per second
warn: No dot file generated. Please install pydot to generate the dot file and pdf.
src/base/statistics.hh:279: warn: One of the stats is a legacy stat. Legacy stat is a stat that does not belong to any statistics::Group. Legacy stat is deprecated.
src/base/remote_gdb.cc:418: warn: Sockets disabled, not accepting gdb connections
gem5 Simulator System.  https://www.gem5.org
gem5 is copyrighted software; use the --copyright option for details.

gem5 version 25.1.0.0
gem5 compiled Apr  8 2026 20:09:11
gem5 started Apr  8 2026 20:53:23
gem5 executing on spartacus-7, pid 2808297
command line: /home/hasanat/abrar/cxl_tax/gem5/build/X86/gem5.opt -d /home/hasanat/abrar/cxl_tax/results/fence_sweep/L_160ns_BW_50GiB/s_K_4 /home/hasanat/abrar/cxl_tax/configs/cxl_tax_se.py --bin /home/hasanat/abrar/cxl_tax/benches/fence_sweep --args '2000000 4' --mem-lat 160ns --mem-bw 50GiB/s

info: Standard input is not a terminal, disabling listeners.
src/sim/syscall_emul.cc:86: warn: ignoring syscall set_robust_list(...)
src/sim/syscall_emul.cc:86: warn: ignoring syscall rseq(...)
src/sim/mem_state.cc:443: info: Increasing stack size by one page.
src/sim/syscall_emul.hh:1127: warn: readlink() called on '/proc/self/exe' may yield unexpected results in various settings.
      Returning '/home/hasanat/abrar/cxl_tax/benches/fence_sweep'
src/sim/syscall_emul.cc:86: warn: ignoring syscall mprotect(...)
done n=2000000 K=4 last=1999999
[46] Done: L=160ns BW=50GiB/s K=4
[47] Running: L=160ns BW=50GiB/s K=16
Global frequency set at 1000000000000 ticks per second
warn: No dot file generated. Please install pydot to generate the dot file and pdf.
src/base/statistics.hh:279: warn: One of the stats is a legacy stat. Legacy stat is a stat that does not belong to any statistics::Group. Legacy stat is deprecated.
src/base/remote_gdb.cc:418: warn: Sockets disabled, not accepting gdb connections
gem5 Simulator System.  https://www.gem5.org
gem5 is copyrighted software; use the --copyright option for details.

gem5 version 25.1.0.0
gem5 compiled Apr  8 2026 20:09:11
gem5 started Apr  8 2026 20:53:46
gem5 executing on spartacus-7, pid 2808467
command line: /home/hasanat/abrar/cxl_tax/gem5/build/X86/gem5.opt -d /home/hasanat/abrar/cxl_tax/results/fence_sweep/L_160ns_BW_50GiB/s_K_16 /home/hasanat/abrar/cxl_tax/configs/cxl_tax_se.py --bin /home/hasanat/abrar/cxl_tax/benches/fence_sweep --args '2000000 16' --mem-lat 160ns --mem-bw 50GiB/s

info: Standard input is not a terminal, disabling listeners.
src/sim/syscall_emul.cc:86: warn: ignoring syscall set_robust_list(...)
src/sim/syscall_emul.cc:86: warn: ignoring syscall rseq(...)
src/sim/mem_state.cc:443: info: Increasing stack size by one page.
src/sim/syscall_emul.hh:1127: warn: readlink() called on '/proc/self/exe' may yield unexpected results in various settings.
      Returning '/home/hasanat/abrar/cxl_tax/benches/fence_sweep'
src/sim/syscall_emul.cc:86: warn: ignoring syscall mprotect(...)
done n=2000000 K=16 last=1999999
[47] Done: L=160ns BW=50GiB/s K=16
[48] Running: L=160ns BW=50GiB/s K=64
Global frequency set at 1000000000000 ticks per second
warn: No dot file generated. Please install pydot to generate the dot file and pdf.
src/base/statistics.hh:279: warn: One of the stats is a legacy stat. Legacy stat is a stat that does not belong to any statistics::Group. Legacy stat is deprecated.
src/base/remote_gdb.cc:418: warn: Sockets disabled, not accepting gdb connections
gem5 Simulator System.  https://www.gem5.org
gem5 is copyrighted software; use the --copyright option for details.

gem5 version 25.1.0.0
gem5 compiled Apr  8 2026 20:09:11
gem5 started Apr  8 2026 20:54:08
gem5 executing on spartacus-7, pid 2809379
command line: /home/hasanat/abrar/cxl_tax/gem5/build/X86/gem5.opt -d /home/hasanat/abrar/cxl_tax/results/fence_sweep/L_160ns_BW_50GiB/s_K_64 /home/hasanat/abrar/cxl_tax/configs/cxl_tax_se.py --bin /home/hasanat/abrar/cxl_tax/benches/fence_sweep --args '2000000 64' --mem-lat 160ns --mem-bw 50GiB/s

info: Standard input is not a terminal, disabling listeners.
src/sim/syscall_emul.cc:86: warn: ignoring syscall set_robust_list(...)
src/sim/syscall_emul.cc:86: warn: ignoring syscall rseq(...)
src/sim/mem_state.cc:443: info: Increasing stack size by one page.
src/sim/syscall_emul.hh:1127: warn: readlink() called on '/proc/self/exe' may yield unexpected results in various settings.
      Returning '/home/hasanat/abrar/cxl_tax/benches/fence_sweep'
src/sim/syscall_emul.cc:86: warn: ignoring syscall mprotect(...)
done n=2000000 K=64 last=1999999
[48] Done: L=160ns BW=50GiB/s K=64
[49] Running: L=160ns BW=50GiB/s K=256
Global frequency set at 1000000000000 ticks per second
warn: No dot file generated. Please install pydot to generate the dot file and pdf.
src/base/statistics.hh:279: warn: One of the stats is a legacy stat. Legacy stat is a stat that does not belong to any statistics::Group. Legacy stat is deprecated.
src/base/remote_gdb.cc:418: warn: Sockets disabled, not accepting gdb connections
gem5 Simulator System.  https://www.gem5.org
gem5 is copyrighted software; use the --copyright option for details.

gem5 version 25.1.0.0
gem5 compiled Apr  8 2026 20:09:11
gem5 started Apr  8 2026 20:54:30
gem5 executing on spartacus-7, pid 2809519
command line: /home/hasanat/abrar/cxl_tax/gem5/build/X86/gem5.opt -d /home/hasanat/abrar/cxl_tax/results/fence_sweep/L_160ns_BW_50GiB/s_K_256 /home/hasanat/abrar/cxl_tax/configs/cxl_tax_se.py --bin /home/hasanat/abrar/cxl_tax/benches/fence_sweep --args '2000000 256' --mem-lat 160ns --mem-bw 50GiB/s

info: Standard input is not a terminal, disabling listeners.
src/sim/syscall_emul.cc:86: warn: ignoring syscall set_robust_list(...)
src/sim/syscall_emul.cc:86: warn: ignoring syscall rseq(...)
src/sim/mem_state.cc:443: info: Increasing stack size by one page.
src/sim/syscall_emul.hh:1127: warn: readlink() called on '/proc/self/exe' may yield unexpected results in various settings.
      Returning '/home/hasanat/abrar/cxl_tax/benches/fence_sweep'
src/sim/syscall_emul.cc:86: warn: ignoring syscall mprotect(...)
done n=2000000 K=256 last=1999999
[49] Done: L=160ns BW=50GiB/s K=256
Array task 4 complete.
