[70] Running: L=300ns BW=25GiB/s K=1
Global frequency set at 1000000000000 ticks per second
warn: rounding error > tolerance
    37.252903 rounded to 37
warn: rounding error > tolerance
    37.252903 rounded to 37
warn: No dot file generated. Please install pydot to generate the dot file and pdf.
warn: rounding error > tolerance
    37.252903 rounded to 37
src/base/statistics.hh:279: warn: One of the stats is a legacy stat. Legacy stat is a stat that does not belong to any statistics::Group. Legacy stat is deprecated.
src/base/stats/storage.hh:278: warn: Bucket size (4) does not divide range [1:32] into equal-sized buckets. Rounding up.
src/base/stats/storage.hh:278: warn: Bucket size (4) does not divide range [1:8] into equal-sized buckets. Rounding up.
src/base/remote_gdb.cc:418: warn: Sockets disabled, not accepting gdb connections
gem5 Simulator System.  https://www.gem5.org
gem5 is copyrighted software; use the --copyright option for details.

gem5 version 25.1.0.0
gem5 compiled Apr  8 2026 20:09:11
gem5 started Apr  8 2026 21:04:58
gem5 executing on spartacus-7, pid 2819331
command line: /home/hasanat/abrar/cxl_tax/gem5/build/X86/gem5.opt -d /home/hasanat/abrar/cxl_tax/results/fence_sweep_o3/L_300ns__BW_25GiB_s__K_1 /home/hasanat/abrar/cxl_tax/configs/cxl_tax_se.py --bin /home/hasanat/abrar/cxl_tax/benches/fence_sweep --args '100000 1' --cpu-type o3 --mem-lat 300ns --mem-bw 25GiB/s

info: Standard input is not a terminal, disabling listeners.
src/sim/syscall_emul.cc:86: warn: ignoring syscall set_robust_list(...)
src/sim/syscall_emul.cc:86: warn: ignoring syscall rseq(...)
src/sim/mem_state.cc:443: info: Increasing stack size by one page.
src/sim/syscall_emul.hh:1127: warn: readlink() called on '/proc/self/exe' may yield unexpected results in various settings.
      Returning '/home/hasanat/abrar/cxl_tax/benches/fence_sweep'
src/sim/syscall_emul.cc:86: warn: ignoring syscall mprotect(...)
done n=100000 K=1 last=99999
[70] Done: L=300ns BW=25GiB/s K=1
[71] Running: L=300ns BW=25GiB/s K=4
Global frequency set at 1000000000000 ticks per second
warn: rounding error > tolerance
    37.252903 rounded to 37
warn: rounding error > tolerance
    37.252903 rounded to 37
warn: No dot file generated. Please install pydot to generate the dot file and pdf.
warn: rounding error > tolerance
    37.252903 rounded to 37
src/base/statistics.hh:279: warn: One of the stats is a legacy stat. Legacy stat is a stat that does not belong to any statistics::Group. Legacy stat is deprecated.
src/base/stats/storage.hh:278: warn: Bucket size (4) does not divide range [1:32] into equal-sized buckets. Rounding up.
src/base/stats/storage.hh:278: warn: Bucket size (4) does not divide range [1:8] into equal-sized buckets. Rounding up.
src/base/remote_gdb.cc:418: warn: Sockets disabled, not accepting gdb connections
gem5 Simulator System.  https://www.gem5.org
gem5 is copyrighted software; use the --copyright option for details.

gem5 version 25.1.0.0
gem5 compiled Apr  8 2026 20:09:11
gem5 started Apr  8 2026 21:05:04
gem5 executing on spartacus-7, pid 2819379
command line: /home/hasanat/abrar/cxl_tax/gem5/build/X86/gem5.opt -d /home/hasanat/abrar/cxl_tax/results/fence_sweep_o3/L_300ns__BW_25GiB_s__K_4 /home/hasanat/abrar/cxl_tax/configs/cxl_tax_se.py --bin /home/hasanat/abrar/cxl_tax/benches/fence_sweep --args '100000 4' --cpu-type o3 --mem-lat 300ns --mem-bw 25GiB/s

info: Standard input is not a terminal, disabling listeners.
src/sim/syscall_emul.cc:86: warn: ignoring syscall set_robust_list(...)
src/sim/syscall_emul.cc:86: warn: ignoring syscall rseq(...)
src/sim/mem_state.cc:443: info: Increasing stack size by one page.
src/sim/syscall_emul.hh:1127: warn: readlink() called on '/proc/self/exe' may yield unexpected results in various settings.
      Returning '/home/hasanat/abrar/cxl_tax/benches/fence_sweep'
src/sim/syscall_emul.cc:86: warn: ignoring syscall mprotect(...)
done n=100000 K=4 last=99999
[71] Done: L=300ns BW=25GiB/s K=4
[72] Running: L=300ns BW=25GiB/s K=16
Global frequency set at 1000000000000 ticks per second
warn: rounding error > tolerance
    37.252903 rounded to 37
warn: rounding error > tolerance
    37.252903 rounded to 37
warn: No dot file generated. Please install pydot to generate the dot file and pdf.
warn: rounding error > tolerance
    37.252903 rounded to 37
src/base/statistics.hh:279: warn: One of the stats is a legacy stat. Legacy stat is a stat that does not belong to any statistics::Group. Legacy stat is deprecated.
src/base/stats/storage.hh:278: warn: Bucket size (4) does not divide range [1:32] into equal-sized buckets. Rounding up.
src/base/stats/storage.hh:278: warn: Bucket size (4) does not divide range [1:8] into equal-sized buckets. Rounding up.
src/base/remote_gdb.cc:418: warn: Sockets disabled, not accepting gdb connections
gem5 Simulator System.  https://www.gem5.org
gem5 is copyrighted software; use the --copyright option for details.

gem5 version 25.1.0.0
gem5 compiled Apr  8 2026 20:09:11
gem5 started Apr  8 2026 21:05:09
gem5 executing on spartacus-7, pid 2819561
command line: /home/hasanat/abrar/cxl_tax/gem5/build/X86/gem5.opt -d /home/hasanat/abrar/cxl_tax/results/fence_sweep_o3/L_300ns__BW_25GiB_s__K_16 /home/hasanat/abrar/cxl_tax/configs/cxl_tax_se.py --bin /home/hasanat/abrar/cxl_tax/benches/fence_sweep --args '100000 16' --cpu-type o3 --mem-lat 300ns --mem-bw 25GiB/s

info: Standard input is not a terminal, disabling listeners.
src/sim/syscall_emul.cc:86: warn: ignoring syscall set_robust_list(...)
src/sim/syscall_emul.cc:86: warn: ignoring syscall rseq(...)
src/sim/mem_state.cc:443: info: Increasing stack size by one page.
src/sim/syscall_emul.hh:1127: warn: readlink() called on '/proc/self/exe' may yield unexpected results in various settings.
      Returning '/home/hasanat/abrar/cxl_tax/benches/fence_sweep'
src/sim/syscall_emul.cc:86: warn: ignoring syscall mprotect(...)
done n=100000 K=16 last=99999
[72] Done: L=300ns BW=25GiB/s K=16
[73] Running: L=300ns BW=25GiB/s K=64
Global frequency set at 1000000000000 ticks per second
warn: rounding error > tolerance
    37.252903 rounded to 37
warn: rounding error > tolerance
    37.252903 rounded to 37
warn: No dot file generated. Please install pydot to generate the dot file and pdf.
warn: rounding error > tolerance
    37.252903 rounded to 37
src/base/statistics.hh:279: warn: One of the stats is a legacy stat. Legacy stat is a stat that does not belong to any statistics::Group. Legacy stat is deprecated.
src/base/stats/storage.hh:278: warn: Bucket size (4) does not divide range [1:32] into equal-sized buckets. Rounding up.
src/base/stats/storage.hh:278: warn: Bucket size (4) does not divide range [1:8] into equal-sized buckets. Rounding up.
src/base/remote_gdb.cc:418: warn: Sockets disabled, not accepting gdb connections
gem5 Simulator System.  https://www.gem5.org
gem5 is copyrighted software; use the --copyright option for details.

gem5 version 25.1.0.0
gem5 compiled Apr  8 2026 20:09:11
gem5 started Apr  8 2026 21:05:15
gem5 executing on spartacus-7, pid 2819596
command line: /home/hasanat/abrar/cxl_tax/gem5/build/X86/gem5.opt -d /home/hasanat/abrar/cxl_tax/results/fence_sweep_o3/L_300ns__BW_25GiB_s__K_64 /home/hasanat/abrar/cxl_tax/configs/cxl_tax_se.py --bin /home/hasanat/abrar/cxl_tax/benches/fence_sweep --args '100000 64' --cpu-type o3 --mem-lat 300ns --mem-bw 25GiB/s

info: Standard input is not a terminal, disabling listeners.
src/sim/syscall_emul.cc:86: warn: ignoring syscall set_robust_list(...)
src/sim/syscall_emul.cc:86: warn: ignoring syscall rseq(...)
src/sim/mem_state.cc:443: info: Increasing stack size by one page.
src/sim/syscall_emul.hh:1127: warn: readlink() called on '/proc/self/exe' may yield unexpected results in various settings.
      Returning '/home/hasanat/abrar/cxl_tax/benches/fence_sweep'
src/sim/syscall_emul.cc:86: warn: ignoring syscall mprotect(...)
done n=100000 K=64 last=99999
[73] Done: L=300ns BW=25GiB/s K=64
[74] Running: L=300ns BW=25GiB/s K=256
Global frequency set at 1000000000000 ticks per second
warn: rounding error > tolerance
    37.252903 rounded to 37
warn: rounding error > tolerance
    37.252903 rounded to 37
warn: No dot file generated. Please install pydot to generate the dot file and pdf.
warn: rounding error > tolerance
    37.252903 rounded to 37
src/base/statistics.hh:279: warn: One of the stats is a legacy stat. Legacy stat is a stat that does not belong to any statistics::Group. Legacy stat is deprecated.
src/base/stats/storage.hh:278: warn: Bucket size (4) does not divide range [1:32] into equal-sized buckets. Rounding up.
src/base/stats/storage.hh:278: warn: Bucket size (4) does not divide range [1:8] into equal-sized buckets. Rounding up.
src/base/remote_gdb.cc:418: warn: Sockets disabled, not accepting gdb connections
gem5 Simulator System.  https://www.gem5.org
gem5 is copyrighted software; use the --copyright option for details.

gem5 version 25.1.0.0
gem5 compiled Apr  8 2026 20:09:11
gem5 started Apr  8 2026 21:05:20
gem5 executing on spartacus-7, pid 2819710
command line: /home/hasanat/abrar/cxl_tax/gem5/build/X86/gem5.opt -d /home/hasanat/abrar/cxl_tax/results/fence_sweep_o3/L_300ns__BW_25GiB_s__K_256 /home/hasanat/abrar/cxl_tax/configs/cxl_tax_se.py --bin /home/hasanat/abrar/cxl_tax/benches/fence_sweep --args '100000 256' --cpu-type o3 --mem-lat 300ns --mem-bw 25GiB/s

info: Standard input is not a terminal, disabling listeners.
src/sim/syscall_emul.cc:86: warn: ignoring syscall set_robust_list(...)
src/sim/syscall_emul.cc:86: warn: ignoring syscall rseq(...)
src/sim/mem_state.cc:443: info: Increasing stack size by one page.
src/sim/syscall_emul.hh:1127: warn: readlink() called on '/proc/self/exe' may yield unexpected results in various settings.
      Returning '/home/hasanat/abrar/cxl_tax/benches/fence_sweep'
src/sim/syscall_emul.cc:86: warn: ignoring syscall mprotect(...)
done n=100000 K=256 last=99999
[74] Done: L=300ns BW=25GiB/s K=256
[75] Running: L=300ns BW=12.5GiB/s K=1
Global frequency set at 1000000000000 ticks per second
warn: No dot file generated. Please install pydot to generate the dot file and pdf.
src/base/statistics.hh:279: warn: One of the stats is a legacy stat. Legacy stat is a stat that does not belong to any statistics::Group. Legacy stat is deprecated.
src/base/stats/storage.hh:278: warn: Bucket size (4) does not divide range [1:32] into equal-sized buckets. Rounding up.
src/base/stats/storage.hh:278: warn: Bucket size (4) does not divide range [1:8] into equal-sized buckets. Rounding up.
src/base/remote_gdb.cc:418: warn: Sockets disabled, not accepting gdb connections
gem5 Simulator System.  https://www.gem5.org
gem5 is copyrighted software; use the --copyright option for details.

gem5 version 25.1.0.0
gem5 compiled Apr  8 2026 20:09:11
gem5 started Apr  8 2026 21:05:25
gem5 executing on spartacus-7, pid 2819752
command line: /home/hasanat/abrar/cxl_tax/gem5/build/X86/gem5.opt -d /home/hasanat/abrar/cxl_tax/results/fence_sweep_o3/L_300ns__BW_12.5GiB_s__K_1 /home/hasanat/abrar/cxl_tax/configs/cxl_tax_se.py --bin /home/hasanat/abrar/cxl_tax/benches/fence_sweep --args '100000 1' --cpu-type o3 --mem-lat 300ns --mem-bw 12.5GiB/s

info: Standard input is not a terminal, disabling listeners.
src/sim/syscall_emul.cc:86: warn: ignoring syscall set_robust_list(...)
src/sim/syscall_emul.cc:86: warn: ignoring syscall rseq(...)
src/sim/mem_state.cc:443: info: Increasing stack size by one page.
src/sim/syscall_emul.hh:1127: warn: readlink() called on '/proc/self/exe' may yield unexpected results in various settings.
      Returning '/home/hasanat/abrar/cxl_tax/benches/fence_sweep'
src/sim/syscall_emul.cc:86: warn: ignoring syscall mprotect(...)
done n=100000 K=1 last=99999
[75] Done: L=300ns BW=12.5GiB/s K=1
[76] Running: L=300ns BW=12.5GiB/s K=4
Global frequency set at 1000000000000 ticks per second
warn: No dot file generated. Please install pydot to generate the dot file and pdf.
src/base/statistics.hh:279: warn: One of the stats is a legacy stat. Legacy stat is a stat that does not belong to any statistics::Group. Legacy stat is deprecated.
src/base/stats/storage.hh:278: warn: Bucket size (4) does not divide range [1:32] into equal-sized buckets. Rounding up.
src/base/stats/storage.hh:278: warn: Bucket size (4) does not divide range [1:8] into equal-sized buckets. Rounding up.
src/base/remote_gdb.cc:418: warn: Sockets disabled, not accepting gdb connections
gem5 Simulator System.  https://www.gem5.org
gem5 is copyrighted software; use the --copyright option for details.

gem5 version 25.1.0.0
gem5 compiled Apr  8 2026 20:09:11
gem5 started Apr  8 2026 21:05:31
gem5 executing on spartacus-7, pid 2819820
command line: /home/hasanat/abrar/cxl_tax/gem5/build/X86/gem5.opt -d /home/hasanat/abrar/cxl_tax/results/fence_sweep_o3/L_300ns__BW_12.5GiB_s__K_4 /home/hasanat/abrar/cxl_tax/configs/cxl_tax_se.py --bin /home/hasanat/abrar/cxl_tax/benches/fence_sweep --args '100000 4' --cpu-type o3 --mem-lat 300ns --mem-bw 12.5GiB/s

info: Standard input is not a terminal, disabling listeners.
src/sim/syscall_emul.cc:86: warn: ignoring syscall set_robust_list(...)
src/sim/syscall_emul.cc:86: warn: ignoring syscall rseq(...)
src/sim/mem_state.cc:443: info: Increasing stack size by one page.
src/sim/syscall_emul.hh:1127: warn: readlink() called on '/proc/self/exe' may yield unexpected results in various settings.
      Returning '/home/hasanat/abrar/cxl_tax/benches/fence_sweep'
src/sim/syscall_emul.cc:86: warn: ignoring syscall mprotect(...)
done n=100000 K=4 last=99999
[76] Done: L=300ns BW=12.5GiB/s K=4
[77] Running: L=300ns BW=12.5GiB/s K=16
Global frequency set at 1000000000000 ticks per second
warn: No dot file generated. Please install pydot to generate the dot file and pdf.
src/base/statistics.hh:279: warn: One of the stats is a legacy stat. Legacy stat is a stat that does not belong to any statistics::Group. Legacy stat is deprecated.
src/base/stats/storage.hh:278: warn: Bucket size (4) does not divide range [1:32] into equal-sized buckets. Rounding up.
src/base/stats/storage.hh:278: warn: Bucket size (4) does not divide range [1:8] into equal-sized buckets. Rounding up.
src/base/remote_gdb.cc:418: warn: Sockets disabled, not accepting gdb connections
gem5 Simulator System.  https://www.gem5.org
gem5 is copyrighted software; use the --copyright option for details.

gem5 version 25.1.0.0
gem5 compiled Apr  8 2026 20:09:11
gem5 started Apr  8 2026 21:05:36
gem5 executing on spartacus-7, pid 2820048
command line: /home/hasanat/abrar/cxl_tax/gem5/build/X86/gem5.opt -d /home/hasanat/abrar/cxl_tax/results/fence_sweep_o3/L_300ns__BW_12.5GiB_s__K_16 /home/hasanat/abrar/cxl_tax/configs/cxl_tax_se.py --bin /home/hasanat/abrar/cxl_tax/benches/fence_sweep --args '100000 16' --cpu-type o3 --mem-lat 300ns --mem-bw 12.5GiB/s

info: Standard input is not a terminal, disabling listeners.
src/sim/syscall_emul.cc:86: warn: ignoring syscall set_robust_list(...)
src/sim/syscall_emul.cc:86: warn: ignoring syscall rseq(...)
src/sim/mem_state.cc:443: info: Increasing stack size by one page.
src/sim/syscall_emul.hh:1127: warn: readlink() called on '/proc/self/exe' may yield unexpected results in various settings.
      Returning '/home/hasanat/abrar/cxl_tax/benches/fence_sweep'
src/sim/syscall_emul.cc:86: warn: ignoring syscall mprotect(...)
done n=100000 K=16 last=99999
[77] Done: L=300ns BW=12.5GiB/s K=16
[78] Running: L=300ns BW=12.5GiB/s K=64
Global frequency set at 1000000000000 ticks per second
warn: No dot file generated. Please install pydot to generate the dot file and pdf.
src/base/statistics.hh:279: warn: One of the stats is a legacy stat. Legacy stat is a stat that does not belong to any statistics::Group. Legacy stat is deprecated.
src/base/stats/storage.hh:278: warn: Bucket size (4) does not divide range [1:32] into equal-sized buckets. Rounding up.
src/base/stats/storage.hh:278: warn: Bucket size (4) does not divide range [1:8] into equal-sized buckets. Rounding up.
src/base/remote_gdb.cc:418: warn: Sockets disabled, not accepting gdb connections
gem5 Simulator System.  https://www.gem5.org
gem5 is copyrighted software; use the --copyright option for details.

gem5 version 25.1.0.0
gem5 compiled Apr  8 2026 20:09:11
gem5 started Apr  8 2026 21:05:42
gem5 executing on spartacus-7, pid 2820074
command line: /home/hasanat/abrar/cxl_tax/gem5/build/X86/gem5.opt -d /home/hasanat/abrar/cxl_tax/results/fence_sweep_o3/L_300ns__BW_12.5GiB_s__K_64 /home/hasanat/abrar/cxl_tax/configs/cxl_tax_se.py --bin /home/hasanat/abrar/cxl_tax/benches/fence_sweep --args '100000 64' --cpu-type o3 --mem-lat 300ns --mem-bw 12.5GiB/s

info: Standard input is not a terminal, disabling listeners.
src/sim/syscall_emul.cc:86: warn: ignoring syscall set_robust_list(...)
src/sim/syscall_emul.cc:86: warn: ignoring syscall rseq(...)
src/sim/mem_state.cc:443: info: Increasing stack size by one page.
src/sim/syscall_emul.hh:1127: warn: readlink() called on '/proc/self/exe' may yield unexpected results in various settings.
      Returning '/home/hasanat/abrar/cxl_tax/benches/fence_sweep'
src/sim/syscall_emul.cc:86: warn: ignoring syscall mprotect(...)
done n=100000 K=64 last=99999
[78] Done: L=300ns BW=12.5GiB/s K=64
[79] Running: L=300ns BW=12.5GiB/s K=256
Global frequency set at 1000000000000 ticks per second
warn: No dot file generated. Please install pydot to generate the dot file and pdf.
src/base/statistics.hh:279: warn: One of the stats is a legacy stat. Legacy stat is a stat that does not belong to any statistics::Group. Legacy stat is deprecated.
src/base/stats/storage.hh:278: warn: Bucket size (4) does not divide range [1:32] into equal-sized buckets. Rounding up.
src/base/stats/storage.hh:278: warn: Bucket size (4) does not divide range [1:8] into equal-sized buckets. Rounding up.
src/base/remote_gdb.cc:418: warn: Sockets disabled, not accepting gdb connections
gem5 Simulator System.  https://www.gem5.org
gem5 is copyrighted software; use the --copyright option for details.

gem5 version 25.1.0.0
gem5 compiled Apr  8 2026 20:09:11
gem5 started Apr  8 2026 21:05:47
gem5 executing on spartacus-7, pid 2820097
command line: /home/hasanat/abrar/cxl_tax/gem5/build/X86/gem5.opt -d /home/hasanat/abrar/cxl_tax/results/fence_sweep_o3/L_300ns__BW_12.5GiB_s__K_256 /home/hasanat/abrar/cxl_tax/configs/cxl_tax_se.py --bin /home/hasanat/abrar/cxl_tax/benches/fence_sweep --args '100000 256' --cpu-type o3 --mem-lat 300ns --mem-bw 12.5GiB/s

info: Standard input is not a terminal, disabling listeners.
src/sim/syscall_emul.cc:86: warn: ignoring syscall set_robust_list(...)
src/sim/syscall_emul.cc:86: warn: ignoring syscall rseq(...)
src/sim/mem_state.cc:443: info: Increasing stack size by one page.
src/sim/syscall_emul.hh:1127: warn: readlink() called on '/proc/self/exe' may yield unexpected results in various settings.
      Returning '/home/hasanat/abrar/cxl_tax/benches/fence_sweep'
src/sim/syscall_emul.cc:86: warn: ignoring syscall mprotect(...)
done n=100000 K=256 last=99999
[79] Done: L=300ns BW=12.5GiB/s K=256
Array task 7 complete.
